42
Total Energy                               R     -1.127348458408457E+03
C  -1.19269221 -1.27820087  0.52172156
C  -0.71498510 -1.31601915  1.98804574
C  -2.42240657 -2.15047412  0.36216309
N  -0.10344666 -1.89582423 -0.31841148
O  -4.45955738  0.33115494  1.06705727
C  -2.44482843  0.86963898 -0.10330635
C  -3.83458494  0.31955762  0.03164379
C  -2.43714815  2.27308541 -0.30382444
C  -0.02533072  0.87348458 -0.07964846
C   1.22590263  0.18598352 -0.07415193
C  -1.26652293  0.17107673  0.03450629
C   1.28088082 -1.29494084 -0.42489778
C   1.69385412 -1.46981545 -1.89477247
O   4.44627088  0.05868361 -0.81569833
O  -0.31582061 -2.89564618 -0.89905579
C   2.15021480 -2.17557794  0.49924265
C   3.76798910  0.34597923  0.14325905
C   2.38332477  0.92176367  0.06863536
C   2.35463343  2.33624044  0.10119610
C   1.17974929  3.00444244 -0.06793255
C  -0.03517943  2.28833137 -0.15680332
C  -1.26702746  2.96846567 -0.29365611
O  -4.33752597 -0.07404062 -1.13244152
O   4.19561634  0.26263132  1.39899443
H  -3.19188420 -1.80852383  1.04998025
H  -1.54043202 -0.92152685  2.58249628
H  -0.51697395 -2.34391860  2.29562425
H  -2.18144357 -3.17461077  0.64768948
H   1.75109713 -2.52620419 -2.15440938
H  -2.80553975 -2.15169525 -0.65752976
H  -5.25563068 -0.36302240 -1.01690108
H   0.98844166 -0.96246529 -2.55526058
H   2.67863809 -1.02703324 -2.02675268
H  -3.38211294  2.79312316 -0.41540755
H  -1.26596897  4.04917323 -0.38312064
H   0.16177664 -0.69858661  2.17451807
H   1.91428509 -3.22691039  0.33112458
H   2.01443825 -1.93058694  1.55081943
H   3.19570708 -2.04218644  0.22735309
H   5.10830813 -0.06295054  1.41546356
H   3.28547135  2.88054179  0.21461218
H   1.15902517  4.08776025 -0.11078889

