42
Total Energy                               R     -1.127540428608259E+03
C   0.92701854  0.02560059  2.42086841
C  -1.89674983  1.39529444  1.66092510
C   3.00749094  0.03756009  1.21449389
N  -1.91034219 -0.41505482  0.00000000
O   0.62438542 -1.04385192  4.48856161
C   0.39708909  0.08899642  3.82252569
C   2.34191528  0.02929102  2.39825695
C  -1.87049101 -1.03842577  2.32873947
C   0.17359535  0.00877031  1.26030291
C   0.17359535  0.00877031 -1.26030291
C   0.86096840  0.01552706 -0.00000000
C   2.28799057  0.03204763 -0.00000000
C   3.00749094  0.03756009 -1.21449389
O  -0.08355001  1.07167065 -4.34076296
O  -0.08355001  1.07167065  4.34076296
C   2.34191528  0.02929102 -2.39825695
C  -1.89674983  1.39529444 -1.66092510
C   0.92701854  0.02560059 -2.42086841
C   0.39708909  0.08899642 -3.82252569
C  -1.87049101 -1.03842577 -2.32873947
C  -1.35026142 -0.00463539 -1.32029845
C  -1.35026142 -0.00463539  1.32029845
O   0.62438542 -1.04385192 -4.48856161
O  -3.15946980 -0.65986470  0.00000000
H  -1.69104108  1.63063084  2.70386415
H  -2.97788317  1.41283553  1.50803742
H  -1.43786231  2.16823800  1.04456406
H   2.88804168  0.03328583  3.33496325
H   4.09160427  0.04616380 -1.18550172
H   4.09160427  0.04616380  1.18550172
H   0.34742333 -0.94252490  5.41108051
H   2.88804168  0.03328583 -3.33496325
H  -1.39517342 -2.01001624 -2.17964043
H  -1.70579246 -0.71615930  3.35360035
H  -1.39517342 -2.01001624  2.17964043
H  -2.94644179 -1.15028703  2.21510442
H  -1.43786231  2.16823800 -1.04456406
H  -1.69104108  1.63063084 -2.70386415
H   0.34742333 -0.94252490 -5.41108051
H  -1.70579246 -0.71615930 -3.35360035
H  -2.94644179 -1.15028703 -2.21510442
H  -2.97788317  1.41283553 -1.50803742

