43
Total Energy                               R     -1.230223470661997E+03
C   0.29677974 -1.21002897  0.71658097
C   0.53308396 -1.88075198  2.07297735
C  -0.78942915 -1.98491773 -0.08369726
N  -0.36080953  0.12088168  1.01289584
O  -1.02383392  0.22176398  1.98209645
C  -0.17457961  1.30785828  0.10941383
C  -0.65722251  0.93977473 -1.30235093
C  -0.98448287  2.46074204  0.66853959
C   1.33754755  1.49641937  0.12971066
C   2.15446255  0.35018393 -0.07562736
C   1.62327558 -0.97032860  0.00162264
C   2.41377665 -2.04265626 -0.39717230
N   2.00816504 -3.36272717 -0.35776359
C   3.76934122 -1.80568305 -0.77441734
C   4.31575843 -0.56302180 -0.73328126
C   3.52278142  0.56053339 -0.38555894
C   4.05835372  1.86631137 -0.35667720
C   3.26554383  2.94227786 -0.04893646
C   1.89017299  2.75454653  0.18009581
H  -0.40943238 -2.11673076  2.56669535
H   1.13866027 -1.24321569  2.71967591
H   1.06889221 -2.81260685  1.89753794
H  -1.78817274 -1.67658536  0.22502673
H  -0.70778496 -3.04405322  0.15968315
H  -0.68779661 -1.84688480 -1.15767969
H  -1.69920691  0.62051551 -1.28598752
H  -0.04514736  0.17470022 -1.77633418
H  -0.57764600  1.85010436 -1.89825593
H  -2.03865937  2.18719747  0.72160563
H  -0.89521303  3.30721229 -0.01164921
H  -0.64253267  2.76455894  1.65875684
H   2.60512580 -4.00031576 -0.86373852
H   1.03364742 -3.56046353 -0.51547511
H   4.37386183 -2.65964484 -1.06397635
H   5.36135510 -0.41483160 -0.98324229
H   5.11110799  2.00203814 -0.58432340
H   3.67949419  3.94372696 -0.01918466
H   1.26680311  3.62365295  0.34951043
B  -4.36562158 -0.03671139 -0.46193887
F  -3.82508760 -0.87668205 -1.45765597
F  -3.57204162 -0.11863322  0.70259841
F  -4.37904991  1.29424624 -0.92717434
F  -5.68060374 -0.44599381 -0.16209908

