55
Total Energy                               R     -1.020122859189854E+03
C   1.78032296 -1.03506034 -0.69880180
C   1.14522658 -1.85770201 -1.83805481
C   3.14839145 -1.66165802 -0.30151693
N   1.89814656  0.33814248 -1.27348901
O   2.92458134  0.34455699 -2.24361090
C   2.08457127  1.44012018 -0.29964546
C   3.33658261  1.32409073  0.59752962
C   2.19231123  2.74636494 -1.09280539
C   0.85396671  1.44541146  0.59384067
C   0.30900165  0.19069304  1.00914850
C   0.81719290 -1.03858467  0.49359381
C   0.38872534 -2.22643697  1.08206074
N   0.85802782 -3.49431039  0.72331372
C  -0.63872068 -2.20621662  2.06369029
C  -1.20666105 -1.04047771  2.47757146
C  -0.73368231  0.19519700  1.97893917
C  -1.27915181  1.41938873  2.43712513
C  -0.78116923  2.60669427  1.98017632
C   0.30244675  2.60948068  1.07428293
H   1.81156244 -1.86432163 -2.70215614
H   0.19793670 -1.40456347 -2.13996115
H   0.95495354 -2.89201825 -1.55454241
H   3.95968716 -1.06137271 -0.71120021
H   3.27117031 -2.66741620 -0.71592073
H   3.28244574 -1.72464914  0.78067697
H   4.23654810  1.20099476 -0.01084970
H   3.27004491  0.48322829  1.29048488
H   3.45463887  2.23482322  1.19205572
H   3.05311675  2.70930574 -1.75871611
H   2.33063308  3.60218035 -0.42975590
H   1.29683499  2.91939494 -1.69750224
H   0.71886878 -4.18394826  1.44840600
H   1.80734161 -3.52752946  0.38637064
H  -0.98111323 -3.15406452  2.46985691
H  -2.00991281 -1.04714680  3.20824042
H  -2.09123839  1.39197409  3.15808193
H  -1.19334596  3.54964847  2.32441868
H   0.70404008  3.56867274  0.77162738
N  -3.28065387  0.08687420 -1.22940864
C  -2.24407000  1.13682966 -1.44177991
C  -4.23482319  0.09433032 -2.37358933
C  -2.62581950 -1.24899691 -1.13540351
C  -4.01877774  0.36548728  0.03498973
H  -4.72296782  1.06652124 -2.41474738
H  -1.68690881  0.90056523 -2.34701679
H  -2.74076992  2.10023694 -1.54476393
H  -1.57640112  1.14701774 -0.58401939
H  -3.31591781  0.32572838  0.86513685
H  -4.46622374  1.35564929 -0.03211300
H  -4.79282416 -0.38980281  0.16109929
H  -2.13242786 -1.46256841 -2.08136139
H  -1.89809998 -1.22635072 -0.32662648
H  -3.39065625 -1.99749062 -0.93467832
H  -3.67907036 -0.08639396 -3.29209201
H  -4.97242289 -0.69143465 -2.22056500

