30
Total Energy                               R     -5.590156745204993E+02
C  -0.29727551 -1.50812883 -0.27120107
C  -2.70211141 -0.98883710 -0.86616340
C  -1.90864882 -0.64236345  1.46580634
N  -0.95158262  0.69333666 -0.48760762
O   2.07689934 -1.13465823 -0.41535244
C   0.88347159 -0.67832180  0.20690571
C   0.72341929  1.66247496  1.17020098
C   3.25510823 -0.81779496  0.30143347
C   0.48146058  0.80244840 -0.07560635
O  -1.73696086  1.80860320 -0.12825274
C   1.25518963  1.41006891 -1.24653412
C  -1.49695211 -0.59761022 -0.01627421
H  -0.19565791 -1.70359273 -1.34396242
H  -2.44610499 -0.98890384 -1.92980837
H  -3.05726311 -1.98977814 -0.60041641
H  -0.37026722 -2.46761089  0.24689439
H  -2.32260963 -1.62664799  1.70599731
H   1.00937546 -0.80597892  1.28890345
H   3.21619215 -1.23097785  1.31687614
H   0.11903668  1.33908769  2.02060042
H   1.77592266  1.59162271  1.46236394
H   3.41952486  0.26235134  0.36801137
H   2.30636205  1.59245315 -1.00434684
H   4.09035788 -1.26917673 -0.23547715
H   0.50004208  2.71488297  0.98016775
H   1.21259762  0.76674421 -2.12886535
H   0.80528274  2.37295595 -1.50896520
H  -3.53166831 -0.29124761 -0.71427692
H  -2.67942781  0.10167718  1.68212344
H  -1.07209351 -0.46439232  2.14487117

