28
Total Energy                               R     -5.577173610407838E+02
C  -0.29943692  0.02506737  1.31816977
C  -0.20327660 -1.46175799  1.68259185
C  -0.20327660 -1.46175799 -1.68259185
N  -0.98580725  0.17626344 -0.00000000
O  -2.24611780 -0.01906187 -0.00000000
C  -0.29943692  0.02506737 -1.31816977
C  -1.11997604  0.76118016 -2.37461013
C  -1.11997604  0.76118016  2.37461013
C   1.10289480  0.65619529  1.25477979
C   1.84441249  0.30390499  0.00000000
O   2.95639981 -0.19432369  0.00000000
C   1.10289480  0.65619529 -1.25477979
H  -1.18001078 -1.94091768  1.58548092
H   0.12271392 -1.55400601  2.72141207
H   0.51413170 -1.99808616  1.05944756
H  -1.18001078 -1.94091768 -1.58548092
H   0.51413170 -1.99808616 -1.05944756
H   0.12271392 -1.55400601 -2.72141207
H  -2.07573821  0.26855965 -2.55571073
H  -0.55811432  0.76746234 -3.31155693
H  -1.30515203  1.79665407 -2.07932566
H  -2.07573821  0.26855965  2.55571073
H  -0.55811432  0.76746234  3.31155693
H  -1.30515203  1.79665407  2.07932566
H   1.00448454  1.74770261  1.26601914
H   1.00448454  1.74770261 -1.26601914
H   1.67241369  0.35342746  2.13418314
H   1.67241369  0.35342746 -2.13418314

