28
Total Energy                               R     -5.578319416777521E+02
C   0.31215059 -0.05008589  1.26822602
C   0.23605063  1.45602484 -1.58453469
C   0.23605063  1.45602484  1.58453469
N   0.99094218 -0.41608404 -0.00000000
O  -2.95568952  0.24891141  0.00000000
C  -1.85372550 -0.28232337  0.00000000
C  -1.11742709 -0.63557812  1.25373355
C  -1.11742709 -0.63557812 -1.25373355
C   1.06349195 -0.73434736 -2.41533935
C   1.06349195 -0.73434736  2.41533935
O   2.31815178  0.08083745 -0.00000000
C   0.31215059 -0.05008589 -1.26822602
H  -0.53977107  1.97407703  1.01872332
H   0.00870354  1.60065915 -2.64507637
H  -0.53977107  1.97407703 -1.01872332
H   0.00870354  1.60065915  2.64507637
H   1.19274053  1.94132284  1.38003087
H   2.03754269 -0.27183078  2.58547214
H  -1.67451274 -0.29710786  2.12973209
H   0.48727515 -0.65365372  3.34211947
H   1.21783975 -1.79562292  2.20037943
H  -1.05238452 -1.72965581  1.28789295
H  -1.05238452 -1.72965581 -1.28789295
H  -1.67451274 -0.29710786 -2.12973209
H   0.48727515 -0.65365372 -3.34211947
H   1.21783975 -1.79562292 -2.20037943
H   2.03754269 -0.27183078 -2.58547214
H   1.19274053  1.94132284 -1.38003087

