39
Total Energy                               R     -1.135775818854019E+03
C   1.79922664 -0.23613019  1.32504261
C   2.45055523  0.45129926  2.51952456
C   1.34385361 -1.66312544  1.65737512
N   2.82432548 -0.36253580  0.22339161
O   3.88278148 -0.83769130  0.39185650
C   2.35980276  0.14908673 -1.11947036
C   3.41020401  1.11514794 -1.65796058
C   2.19760933 -1.08445500 -2.01791465
C   1.05641401  0.78079040 -0.72188497
C   0.74961183  0.57302579  0.61673503
C  -0.41574528  1.05769778  1.17288998
C  -1.29882932  1.76542229  0.35503051
O  -2.43349811  2.20619753  0.96123071
C  -3.38358714  2.91553237  0.17602759
C  -1.00021186  1.98084813 -0.99283885
C   0.18373575  1.48502954 -1.53151314
H   3.26500888 -0.15584605  2.91694679
H   1.68560717  0.55800901  3.29034881
H   2.82127434  1.44187457  2.25188241
H   2.17698204 -2.24078974  2.06112026
H   0.93395932 -2.16315408  0.77915052
H   0.56282706 -1.58210534  2.41463636
H   4.35532789  0.60015605 -1.83592064
H   3.56480167  1.95105175 -0.97401981
H   3.03893686  1.50284350 -2.60801839
H   3.16385434 -1.56252092 -2.18760540
H   1.79884862 -0.73476482 -2.97159874
H   1.49795302 -1.80093551 -1.58610577
H  -0.66198908  0.88881236  2.21538103
H  -4.20288157  3.15758819  0.85007680
H  -3.75734411  2.29658222 -0.64363172
H  -2.95348374  3.83918329 -0.22064485
H  -1.68079108  2.52600920 -1.63376512
H   0.40940536  1.65070869 -2.57959418
B  -2.53674528 -1.80942092 -0.25791575
F  -1.35626338 -1.76094453 -1.02726513
F  -3.22990872 -3.00679779 -0.54483536
F  -2.21393847 -1.77700793  1.11387922
F  -3.35710645 -0.70824025 -0.57775157

