51
Total Energy                               R     -9.255585570556948E+02
C  -0.37900355 -0.78839149  1.14351503
C  -0.61122690 -1.09963060  2.62157663
C   0.31830706 -1.95150072  0.43759334
N   0.43312080  0.44659414  1.01239298
O   1.58063582  0.55225669  1.54049224
C  -0.21559842  1.57933613  0.30587219
C  -0.34145265  2.77296688  1.25202424
C   0.59052319  1.94908458 -0.93953449
C  -1.54608045  0.95407169 -0.02605433
C  -1.63748128 -0.35459439  0.43650590
C  -2.77713769 -1.10943607  0.23287435
C  -3.85062488 -0.53400138 -0.45131693
O  -4.94348398 -1.33559395 -0.61622107
C  -6.06862151 -0.80296332 -1.30198207
C  -3.77028707  0.77933777 -0.91985414
C  -2.61036787  1.52250345 -0.70383644
H   0.33610273 -1.32363314  3.11777848
H  -1.26135680 -1.97274674  2.71313692
H  -1.08647816 -0.25665026  3.12888349
H   1.30160695 -2.13326224  0.87926644
H   0.44140158 -1.74768068 -0.62827498
H  -0.28136069 -2.85789825  0.54961482
H   0.64654598  3.14260973  1.53734734
H  -0.89230439  2.49976005  2.15524118
H  -0.87736419  3.58144014  0.74909703
H   1.60415931  2.25355344 -0.66573077
H   0.10749481  2.78553804 -1.45049520
H   0.64919069  1.10789233 -1.63366493
H  -2.85461406 -2.13102735  0.59111457
H  -6.81097453 -1.59880039 -1.31775222
H  -5.81054675 -0.52662738 -2.32809985
H  -6.47679351  0.06434982 -0.77570846
H  -4.59705812  1.23452022 -1.44999246
H  -2.55405942  2.54270380 -1.07057400
N   4.41348937 -0.44330547 -0.72442315
C   4.54805966  0.99924263 -0.37216154
C   5.56200301 -0.85944023 -1.57660338
C   4.39434536 -1.25968135  0.52349595
C   3.13874790 -0.64958812 -1.46802736
H   5.56347704 -0.25467491 -2.48182977
H   5.48543017  1.14199958  0.16296480
H   4.54674940  1.58495362 -1.28975834
H   3.70696314  1.28228022  0.25808785
H   2.31858033 -0.33483049 -0.83041270
H   3.16184393 -0.05123441 -2.37724989
H   3.04308705 -1.70599293 -1.71288387
H   5.33166900 -1.10457814  1.05563962
H   3.55409042 -0.93651472  1.13549650
H   4.28471517 -2.30853166  0.25295152
H   6.48479456 -0.70482420 -1.02005779
H   5.44689866 -1.91230859 -1.82861526

