51
Total Energy                               R     -9.256736722495593E+02
C  -2.03624951 -0.04196523  1.22479839
C  -2.88687834 -0.85414141  2.20102679
C  -1.28624112  1.04185856  2.02166982
N  -2.89218981  0.44906911  0.10816337
O  -3.58377409  1.63788498  0.40619007
C  -2.08694831  0.52193351 -1.14373043
C  -2.98486600  0.21927143 -2.34337748
C  -1.37362138  1.86089655 -1.39867401
C  -1.07356540 -0.56469191 -0.88649765
C  -1.04914912 -0.89289148  0.46535705
C  -0.16134349 -1.83158993  0.95771581
C   0.72719084 -2.44748273  0.07164685
O   1.59230816 -3.34980519  0.63196831
C   2.55906671 -3.95698972 -0.21224368
C   0.71005214 -2.12931315 -1.28655507
C  -0.19779055 -1.18061398 -1.76299433
H  -3.66398138 -0.22162533  2.64099068
H  -2.27805191 -1.25107722  3.01937952
H  -3.37158390 -1.69312847  1.69456813
H  -1.98954426  1.68969256  2.55054065
H  -0.65431343  1.66807687  1.39131181
H  -0.64172064  0.56564506  2.76676602
H  -3.77716205  0.97025590 -2.42249903
H  -3.45153774 -0.76452255 -2.24496517
H  -2.41462654  0.23766597 -3.27757918
H  -2.09443983  2.66688698 -1.55699627
H  -0.75841545  1.77957734 -2.30002526
H  -0.71879450  2.14647000 -0.57524505
H  -0.12454248 -2.08557425  2.01289765
H   3.14929416 -4.60879212  0.42956445
H   3.21271888 -3.20644753 -0.66655334
H   2.08290501 -4.55438331 -0.99498209
H   1.39599578 -2.60018042 -1.97935653
H  -0.19952593 -0.93214096 -2.82043151
N   2.77665305  1.91436077  0.13648697
C   2.06003340  3.04680990  0.78844458
C   4.19789021  1.90517555  0.58180695
C   2.12447629  0.62840670  0.51560309
C   2.71558593  2.07270212 -1.34454843
H   4.66116987  2.84791418  0.29564039
H   2.08782692  2.90195949  1.86694969
H   2.55922066  3.97655423  0.52032739
H   1.03068756  3.06019292  0.43731342
H   1.67088667  2.07355456 -1.65153523
H   3.19042985  3.01411334 -1.61600279
H   3.24110559  1.23855830 -1.80628322
H   2.13625279  0.53409717  1.59995106
H   1.10190743  0.64284982  0.14753132
H   2.67922635 -0.18899974  0.05877899
H   4.22316161  1.78658089  1.66369355
H   4.71008181  1.07333021  0.10174098

