64
Total Energy                               R     -1.766438494673476E+03
C   0.07469971  1.88712205 -0.99770527
C   1.09131023  2.91360119 -0.46398552
C  -0.76142385  2.51071945 -2.12855157
N   0.86791401  0.77591655 -1.57884510
O   1.76544600  1.10171577 -2.41809259
C   0.45046869 -0.64846617 -1.46967543
C  -0.88841987 -0.85499537 -2.20152189
C   1.52288959 -1.49171928 -2.14764599
C   0.24431501 -0.91884458  0.02028623
C  -0.43414923  0.09900132  0.76920418
C  -0.73005655  1.37739262  0.19628323
C  -1.63293436  2.19033831  0.85279466
C  -2.21898991  3.45995326  0.31074922
O  -3.24712576  3.48915185 -0.32815283
O  -1.56643576  4.55616963  0.68669806
C  -2.14456027  1.85402429  2.12850577
C  -1.73490175  0.71675666  2.75537657
C  -0.88771296 -0.19148401  2.08255539
C  -0.51911744 -1.41044669  2.69884187
C   0.20294230 -2.33206921  2.00776265
C   0.54318238 -2.10638355  0.64875486
C   1.14455403 -3.32098221  0.00996912
O   0.49969180 -4.17509242 -0.55713777
O   2.45147818 -3.42448131  0.23625877
H   1.72339081  3.27466741 -1.27550502
H   1.72267770  2.46797146  0.30703284
H   0.56874344  3.76558148 -0.03317226
H  -0.13943446  2.58427548 -3.02205528
H  -1.07011659  3.52548337 -1.87807963
H  -1.64688976  1.91891451 -2.36089259
H  -0.79231508 -0.54764297 -3.24577043
H  -1.70351487 -0.29771905 -1.73933876
H  -1.14651378 -1.91539286 -2.16983128
H   1.66838165 -1.14200616 -3.16797186
H   1.19687885 -2.52640403 -2.21865949
H   2.47887882 -1.44180334 -1.62610742
H  -2.02877507  5.34127637  0.35661324
H  -2.84171141  2.52936695  2.61323129
H  -2.08000627  0.47743841  3.75542653
H  -0.83783492 -1.60466081  3.71736386
H   0.48009572 -3.27235479  2.47290541
H   2.78492444 -4.25506058 -0.13470389
N   4.68878880  0.48478111  0.50434637
C   3.31645795  0.08687411  0.92757131
C   4.70515875  1.93966491  0.17942244
C   5.64799182  0.20495653  1.60898089
C   5.07479000 -0.29596430 -0.70517606
H   4.00520205  2.12391756 -0.63338916
H   3.03779180  0.66274641  1.80846173
H   2.63776454  0.30015230  0.10824257
H   3.31490728 -0.97699496  1.15396894
H   5.02909461 -1.35697129 -0.46587821
H   4.37917902 -0.06007944 -1.50851159
H   6.08739163 -0.01753875 -0.99251647
H   5.35014459  0.77952730  2.48438202
H   5.62061018 -0.86031706  1.83229016
H   6.64703035  0.49643866  1.28944299
H   4.40951220  2.49865605  1.06547768
H   5.71375474  2.21846951 -0.12162114
B  -4.02330038 -1.70393109 -0.29983535
F  -4.14176596 -2.01907424 -1.67051149
F  -2.93867228 -2.41215677  0.25386037
F  -3.81587238 -0.31802533 -0.15324130
F  -5.21180729 -2.07176250  0.36949953

