64
Total Energy                               R     -1.766630536585414E+03
C   0.14143508  1.71751282 -0.49364758
C   0.29526641  2.81711080  0.56845320
C   0.71745729  2.24318148 -1.82726080
N   0.86660439  0.57651759  0.07582471
O   3.81144374  1.79403546  0.29917384
C   0.89262042 -0.70897121 -0.63085009
C   1.76617875 -0.69664760 -1.90904798
C   1.52436738 -1.67463573  0.38639896
C  -0.54543863 -1.10577814 -0.95695027
C  -1.58089401 -0.10794911 -0.93882428
C  -1.30568708  1.28519397 -0.70411285
C  -2.36593339  2.16980794 -0.69375100
C  -2.28040465  3.64698551 -0.46409880
O  -2.70355121  4.19448701  0.53153976
O  -1.80283164  4.32126470 -1.50859133
C  -3.70347118  1.74296703 -0.88375382
C  -3.97688972  0.43456481 -1.12562150
C  -2.92777076 -0.51211382 -1.16745157
C  -3.23762148 -1.86629905 -1.42340754
C  -2.24616421 -2.79567812 -1.45940679
C  -0.90226109 -2.41266731 -1.23409363
C   0.05030484 -3.56110444 -1.35103461
O   0.82190544 -3.73763409 -2.26818392
O  -0.11492624 -4.45085917 -0.36889507
H   1.35079499  2.88800548  0.84316769
H  -0.27512208  2.58282216  1.46991243
H   0.00961087  3.80473672  0.20818019
H   1.80289573  2.34823212 -1.74535284
H   0.29558249  3.22088422 -2.06310198
H   0.49629714  1.58071695 -2.66369720
H   2.65666870 -0.08850857 -1.73412506
H   1.24066844 -0.29118720 -2.77317529
H   2.09071320 -1.70423498 -2.16799497
H   2.43810433 -1.22302501  0.77881622
H   1.81814222 -2.63012253 -0.04778629
H   0.85054258 -1.85618038  1.22635511
H  -1.80784368  5.27026025 -1.31418848
H  -4.50398782  2.47402027 -0.84337113
H  -4.99632810  0.09945844 -1.28417445
H  -4.27198576 -2.14927985 -1.58699517
H  -2.47584151 -3.83719520 -1.65716786
H   0.46697500 -5.21109921 -0.51583534
N   5.63495523  0.23650403  0.75321726
C   6.09900379 -0.62024707  1.86656677
C   4.34967841  1.05080267  1.24425097
C   6.69839573  1.19369711  0.37330506
C   5.27629715 -0.60229761 -0.41272446
H   3.71256916  0.23311935  1.62951489
H   6.32177607  0.00584826  2.73016869
H   5.31494298 -1.33323449  2.11913281
H   6.99733667 -1.15614673  1.56047688
H   6.15448268 -1.16631646 -0.72773704
H   4.47978118 -1.28810550 -0.12819837
H   4.94140022  0.04014957 -1.22338195
H   6.96460806  1.79097400  1.24495804
H   7.57053645  0.64211045  0.02208069
H   6.32624550  1.84035395 -0.41886788
H   4.76819743  1.60115179  2.10765681
H   1.83535537  0.87242575  0.19887624
B  -3.03771829 -0.97070868  2.60328519
F  -2.13866328 -1.90288710  2.04804246
F  -4.30699571 -1.12594365  2.00707817
F  -3.14529731 -1.19810034  3.99400547
F  -2.56710804  0.33879749  2.38178103

