51
Total Energy                               R     -1.271973464402849E+03
C   0.91006486  3.08025670  0.22801195
C   1.27254124  3.24896691  1.70915382
C   1.61779286  4.18121748 -0.56432531
N   1.28394189  1.76457374 -0.36020115
O   2.44890143  1.20755127  0.19673673
C   0.11412110  0.85864949 -0.31074011
C   0.29943222 -0.27094393 -1.31916063
C  -0.19315804  0.24397018  1.06516406
C  -0.98212947  1.86925210 -0.74578043
C  -2.37510446  1.36696911 -0.49962589
O  -3.06109654  1.62174212  0.47182610
O  -2.80749756  0.56202223 -1.47409495
C  -0.62130783  3.13665329  0.02947120
H   2.35463995  3.28427495  1.85598199
H   0.87422991  2.44545070  2.33121424
H   0.85640108  4.19277054  2.07663485
H   2.70347209  4.04333466 -0.52765050
H   1.39092880  5.17133813 -0.15447409
H   1.30707501  4.16745099 -1.61345123
H   1.12595006 -0.91966167 -1.01884694
H   0.51814889  0.12436655 -2.31535813
H  -0.59746831 -0.89188534 -1.38392170
H   0.70310130 -0.22638591  1.47531088
H  -0.96118972 -0.53052700  0.97481738
H  -0.55125485  0.97698528  1.78984122
H  -0.87454827  2.02523041 -1.82192074
H  -3.64683263  0.14029611 -1.20800039
H  -1.12745469  3.13732024  0.99708168
H  -0.93906655  4.03652368 -0.50238580
N   4.33666380 -2.16832416 -0.00660095
C   3.07482376 -2.43324340  0.74166022
C   5.17500864 -3.39984626 -0.01686729
C   4.01392142 -1.77423005 -1.40817653
C   5.08038746 -1.06061568  0.65929720
H   5.40418528 -3.67550725  1.01107110
H   2.52473823 -3.22377868  0.23420636
H   3.32936538 -2.74288132  1.75394094
H   2.48738522 -1.51795392  0.76598915
H   4.45358334 -0.16986685  0.65061279
H   5.30409659 -1.35715246  1.68274253
H   6.00252960 -0.88005101  0.10949198
H   3.45014562 -2.57892962 -1.87698432
H   3.42361119 -0.86003332 -1.38504834
H   4.94633187 -1.60556062 -1.94452375
H   4.61754056 -4.19796294 -0.50434129
H   6.09317877 -3.19399800 -0.56449321
B  -4.17587100 -2.05385877  0.27107924
F  -3.79748958 -1.48017802  1.49501194
F  -3.04059362 -2.52276954 -0.41148391
F  -5.07958398 -3.10589550  0.48748065
F  -4.81550281 -1.05677028 -0.53095923

