48
Total Energy                               R     -7.534062779430517E+02
C   1.66232461  1.28649486 -0.65708927
C   0.87745309  2.34359335  0.13171011
C   2.29772696  1.97267157 -1.86850474
N   2.73796454  0.60014738  0.11209845
O   3.35120141  1.41664445  1.08727518
C   2.20669358 -0.67784389  0.63808774
C   3.36788896 -1.60838050  0.97615283
C   1.30994571 -0.54531051  1.88175769
C   1.42135518 -1.16066864 -0.59438181
C   0.45895509 -2.31123115 -0.35713731
N  -0.17000267 -2.74127773 -1.61305710
C   0.74009311  0.12319510 -1.08745054
H   1.50815171  3.19595619  0.39617566
H   0.44540002  1.94582362  1.05192755
H   0.05507941  2.71851311 -0.48629142
H   3.05542720  2.69644996 -1.54981089
H   1.54730784  2.51075857 -2.45822512
H   2.78083935  1.23922626 -2.52140987
H   3.94948401 -1.21816991  1.81730895
H   4.04077997 -1.72072548  0.12066578
H   3.00600698 -2.60178790  1.25919567
H   1.81199373  0.05120031  2.64792989
H   1.10142950 -1.52844356  2.31384030
H   0.34973451 -0.07351112  1.66457832
H   2.15698062 -1.48657827 -1.33985377
H  -0.28745019 -2.01494265  0.39123078
H   0.99920368 -3.16747618  0.05755203
H  -0.72051817 -1.97078201 -1.98065414
H  -0.84092249 -3.47341385 -1.40372228
H  -0.23862689  0.22109255 -0.60962596
H   0.56668958  0.11535145 -2.16724748
N  -3.63113147  0.27166810  0.23798767
C  -4.60812207  1.04236230 -0.58186298
C  -2.54215544  1.18108602  0.69667776
C  -4.32420138 -0.31119553  1.42199347
C  -3.04813853 -0.82574833 -0.58585271
H  -2.06712063  1.62196940 -0.17675687
H  -5.01527496  1.84898557  0.02544195
H  -4.09125612  1.44925555 -1.44938742
H  -5.40451845  0.37151822 -0.89914139
H  -3.85628914 -1.46450283 -0.93811532
H  -2.51984134 -0.38655007 -1.42992393
H  -2.36181329 -1.39755942  0.03525537
H  -4.75455149  0.49848723  2.00859827
H  -5.10824410 -0.98094750  1.07310416
H  -3.59633086 -0.86054919  2.01657601
H  -2.97724789  1.96024110  1.32035988
H  -1.82083953  0.60004317  1.26841945

