48
Total Energy                               R     -7.532961070118024E+02
C   1.09204091  1.27058727  0.00313622
C   1.59200215  2.20941266 -1.09489054
C  -0.17497261  1.83872673  0.63848573
N   0.81302297 -0.06227216 -0.58198735
O  -0.14011957 -0.24926287 -1.40203260
C   1.53004132 -1.18419048  0.06701834
C   0.63466059 -1.78031663  1.16186348
C   1.85820345 -2.25935735 -0.96018656
C   2.74201350 -0.45096459  0.68575076
C   3.96040972 -0.39199528 -0.23437240
N   5.07342262  0.32560741  0.39463756
C   2.16670673  0.93452109  1.05028802
H   0.83889916  2.31974815 -1.87980776
H   2.51629883  1.84486492 -1.54798964
H   1.78678029  3.19670852 -0.66873688
H  -0.95016799  2.00799765 -0.11244731
H   0.05600322  2.79708666  1.11098157
H  -0.56666545  1.16726643  1.40611014
H  -0.28414402 -2.18076879  0.72647348
H   0.36505913 -1.03969024  1.91831960
H   1.16198318 -2.60002821  1.65636824
H   0.94173277 -2.73017316 -1.32252355
H   2.47138169 -3.03467499 -0.49471843
H   2.39962021 -1.85965575 -1.81945937
H   3.04519214 -0.97299144  1.59723332
H   3.68575202  0.03761562 -1.20616645
H   4.30159314 -1.41055328 -0.42911221
H   4.87513920  1.32058194  0.39925808
H   5.89557421  0.21612215 -0.18894160
H   2.92773922  1.71515963  1.09089429
H   1.70962766  0.89001648  2.04104264
N  -3.94662354 -0.06248986  0.05462188
C  -3.63214473  0.44868493 -1.31069612
C  -4.05541002  1.08605799  0.99865726
C  -5.23713474 -0.80690929  0.02289326
C  -2.85753770 -0.97456170  0.50777329
H  -3.10682433  1.62002794  1.00972415
H  -4.44290214  1.09965730 -1.63353427
H  -2.69782196  1.00484936 -1.26923835
H  -3.53683536 -0.39809897 -1.98787070
H  -2.77474371 -1.79908076 -0.19821459
H  -1.92887160 -0.41230229  0.53878052
H  -3.10524469 -1.34970938  1.49931461
H  -6.02353857 -0.13170441 -0.30974345
H  -5.14114214 -1.64167396 -0.66926103
H  -5.45452739 -1.17239689  1.02505599
H  -4.85341255  1.74336494  0.65742130
H  -4.28260333  0.70244793  1.99181939

