36
Total Energy                               R     -9.635190776020568E+02
C  -1.07368304 -1.40616623  0.08606969
C  -1.65531919 -2.20625878 -1.08239061
C   0.07314856 -2.16745405  0.74825357
N  -0.50139902 -0.13537224 -0.49061120
O   0.31295841 -0.12931860 -1.33756531
C  -1.06381267  1.10918844  0.12147156
C  -0.09547610  1.44527091  1.27681080
C  -1.06856860  2.22725358 -0.90411539
C  -2.41731358  0.59978976  0.65840259
C  -3.56335491  0.77132164 -0.33975947
N  -4.81927420  0.25348100  0.20203752
C  -2.12327159 -0.86316236  1.06000531
H  -0.87689673 -2.45863985 -1.80411565
H  -2.45903928 -1.66795430 -1.58582140
H  -2.06327939 -3.12904904 -0.66764176
H   0.82218093 -2.46448636  0.01286326
H  -0.35308064 -3.06590817  1.19832999
H   0.54361704 -1.57490416  1.53325036
H   0.90492859  1.63538510  0.88828011
H  -0.04622508  0.65926859  2.02982787
H  -0.47960271  2.35322681  1.74409229
H  -0.04897112  2.50591016 -1.17338760
H  -1.55227923  3.09501589 -0.45312156
H  -1.61301360  1.95293221 -1.80855178
H  -2.66158228  1.17576454  1.55269965
H  -3.30402001  0.31886217 -1.30575531
H  -3.69864506  1.83832493 -0.52443918
H  -4.82900850 -0.75873669  0.13454030
H  -5.57914396  0.57342700 -0.38794432
H  -3.01317702 -1.49016366  1.03606348
H  -1.73422675 -0.89980465  2.07790912
B   3.52838241  0.11048348  0.01166590
F   3.25235265 -0.94242776 -0.88452496
F   2.96738955 -0.18399243  1.27110373
F   4.92516388  0.26115392  0.14353007
F   2.97359444  1.30951096 -0.48381522

