52
Total Energy                               R     -1.197829981306729E+03
C   0.78015136  1.76839241 -1.28642152
C  -0.24556383  1.37937589 -2.35051317
C   1.32006033  3.17132206 -1.59993075
N   0.09499927  1.78475720  0.04128134
O  -1.04684467  2.34900762  0.08653396
C   0.81934721  1.63967460  1.33988807
C   1.36933472  3.00497702  1.77733324
C  -0.17543594  1.14387106  2.38884522
C   1.93734518  0.60115527  1.19385012
C   2.79487121  0.77399071 -0.04983204
O   3.80708851 -0.22184046 -0.11244410
C   1.89959800  0.72076993 -1.27762442
H  -1.02047282  2.13878133 -2.46159321
H  -0.72038565  0.42494351 -2.11238446
H   0.26815966  1.27168274 -3.30943175
H   0.52910224  3.91666673 -1.48396749
H   1.66727385  3.20079296 -2.63636135
H   2.15699932  3.45384757 -0.96025088
H   0.57899131  3.75937963  1.75027204
H   2.19517153  3.34630875  1.15217116
H   1.73688252  2.93277047  2.80462291
H  -0.94340627  1.88887130  2.60028245
H   0.36609850  0.93750317  3.31576727
H  -0.66094698  0.21960901  2.06789136
H   1.48746759 -0.39722834  1.15797009
H   2.56248722  0.64291835  2.09051367
H   3.33731403  1.72186989 -0.01339539
H   3.37827176 -1.08805760 -0.11175056
H   1.45071788 -0.27775035 -1.32520754
H   2.49730642  0.85230406 -2.18427265
N  -3.56798511 -0.33432019 -0.01266139
C  -3.62688630  0.44722113  1.25624154
C  -4.69557504 -1.30694846 -0.05595673
C  -3.66963933  0.60292516 -1.16888880
C  -2.27502232 -1.07601403 -0.08343547
H  -4.60983720 -1.98068380  0.79489823
H  -4.58895236  0.95502969  1.30606619
H  -3.52002574 -0.23929332  2.09462247
H  -2.81580066  1.17310654  1.25111593
H  -1.45651678 -0.36098550 -0.04504675
H  -2.22017292 -1.75793852  0.76282199
H  -2.24636994 -1.63273635 -1.01767714
H  -4.62750026  1.11813561 -1.11329839
H  -2.85087944  1.31746627 -1.10576515
H  -3.60553541  0.02834434 -2.09146408
H  -5.63400588 -0.75724343 -0.00759237
H  -4.63683603 -1.86876845 -0.98674193
B   1.13107438 -3.15529025 -0.01635158
F   2.50267850 -2.77457610 -0.03755520
F   1.04635748 -4.55555350 -0.11907139
F   0.55183249 -2.73046974  1.19293000
F   0.46840568 -2.55694153 -1.10246419

