56
Total Energy                               R     -1.153227203669968E+03
C   0.42800792  1.86597438  1.14672711
C   1.04646910  1.19090736  2.38213807
C   0.20132706  3.35901775  1.43690317
N   1.40650802  1.73421033  0.03662148
O   2.58937275  2.13639264  0.28006323
C   0.99521309  1.57482518 -1.38526636
C   0.40443523  2.90192657 -1.90034489
C   2.23335750  1.22851602 -2.20703831
C  -0.07526954  0.49638168 -1.44961410
C  -1.03547323  0.40679706 -0.39777207
C  -0.86880172  1.14554441  0.80736902
C  -1.86562051  1.12479758  1.75343383
C  -3.01913435  0.35032413  1.57574476
C  -3.18212243 -0.42945559  0.45524428
C  -4.45081544 -1.18881518  0.31069329
O  -5.03719516 -1.39134367 -0.73363770
O  -4.93172140 -1.61882082  1.48343372
C  -2.17791766 -0.43390047 -0.56050728
C  -2.24923502 -1.26761612 -1.70750214
C  -1.27236263 -1.21894215 -2.66091911
C  -0.19922878 -0.31302432 -2.54816846
H   2.01379822  1.63623797  2.61489866
H   1.17562954  0.11952025  2.22028633
H   0.39303459  1.33144098  3.24351245
H   1.16200794  3.84603530  1.61556335
H  -0.40776094  3.47509499  2.33462952
H  -0.30313552  3.86384299  0.61299076
H   1.11350073  3.71752821 -1.73704622
H  -0.53910750  3.14792307 -1.41091890
H   0.21383720  2.81316403 -2.97211709
H   2.99425148  1.99782356 -2.08746959
H   1.97326270  1.19124871 -3.26456158
H   2.65541068  0.26502897 -1.91718648
H  -1.76517389  1.68959173  2.67289312
H  -3.78610543  0.37025893  2.34035879
H  -5.78748997 -2.04691666  1.33847732
H  -3.08093872 -1.94781416 -1.82668133
H  -1.33004918 -1.86714200 -3.52871907
H   0.51929297 -0.26515246 -3.35614896
N   3.31348205 -2.17124822  0.56524105
C   3.46557874 -3.65328335  0.54410479
C   4.31435994 -1.55183964 -0.34938667
C   1.93987743 -1.80440306  0.11650508
C   3.53512968 -1.66395834  1.94908153
H   5.31161662 -1.84214669 -0.02309108
H   3.30555719 -4.00629317 -0.47310721
H   4.47061567 -3.90746694  0.87702103
H   2.72634658 -4.08927056  1.21382963
H   2.78772857 -2.10323756  2.60737514
H   4.53479819 -1.95109742  2.27053943
H   3.44072672 -0.57971974  1.94142258
H   1.79264547 -2.17010923 -0.89799561
H   1.21613798 -2.25830364  0.79135072
H   1.85278775 -0.72234916  0.14397811
H   4.13185930 -1.90723763 -1.36196786
H   4.20468883 -0.46968610 -0.30258095

