55
Total Energy                               R     -1.169138491280351E+03
C  -1.10863707  0.89853828 -1.27966633
C  -0.05814082  1.57062272 -2.17392288
C  -2.50053509  1.51762222 -1.50182501
N  -1.16858506 -0.53034357 -1.72316185
O  -1.19553535 -0.72239697 -2.98100873
C  -1.69169376 -1.65605084 -0.91058661
C  -3.17706563 -1.86992194 -1.24687917
C  -0.87932951 -2.89750159 -1.31369535
C  -1.50554047 -1.38327653  0.56875412
C  -0.99093550 -0.15345338  1.06398320
C  -0.74164177  0.96447100  0.20286857
C  -0.18894470  2.07284656  0.80015506
N   0.10010348  3.32665887  0.07953825
O  -0.83319454  4.02798421 -0.25822261
O   1.26906166  3.62125339 -0.07924372
C   0.15741794  2.16616903  2.16265909
C  -0.12152789  1.11971845  2.98300599
C  -0.71473819 -0.05343011  2.46080346
C  -1.02133762 -1.12627513  3.32812016
C  -1.58460983 -2.26849039  2.83324125
C  -1.81277700 -2.39271837  1.45208800
H  -0.22201122  1.27271429 -3.20624352
H   0.95405768  1.28228122 -1.88182311
H  -0.14978398  2.65356686 -2.15412919
H  -2.81258762  1.35013380 -2.53503755
H  -2.46676750  2.59091117 -1.31624379
H  -3.23974454  1.07777826 -0.83070329
H  -3.30184255 -1.99650159 -2.32379169
H  -3.78978815 -1.03117760 -0.91384935
H  -3.53832384 -2.77383883 -0.75324714
H  -0.98649162 -3.09071430 -2.38091221
H  -1.24233617 -3.77362613 -0.77660779
H   0.17978041 -2.76357261 -1.08179579
H   0.61220623  3.07513684  2.53789186
H   0.10513346  1.17428117  4.04195960
H  -0.80545294 -1.01952276  4.38599761
H  -1.83760740 -3.09152161  3.49236274
H  -2.22741283 -3.32387803  1.08395516
N   3.39731920 -1.06250003 -0.32211127
C   3.40689431 -2.35270775 -1.06840413
C   2.03153476 -0.81569477  0.21787089
C   4.37230729 -1.12655033  0.80290833
C   3.76575937  0.04839258 -1.24572583
H   1.34444244 -0.76331250 -0.62259108
H   3.12969541 -3.15390466 -0.38568284
H   2.68884630 -2.28820074 -1.88419794
H   4.40842463 -2.52135333 -1.46081888
H   4.77211222 -0.12908301 -1.62123317
H   3.05447818  0.06649233 -2.06990239
H   3.72913898  0.98675124 -0.69513401
H   4.08268323 -1.93667299  1.47004986
H   5.36552565 -1.31017011  0.39664922
H   4.35316063 -0.17681418  1.33475504
H   1.75931982 -1.63710140  0.87844812
H   2.03787473  0.12562880  0.76530326

