43
Total Energy                               R     -1.379346643411770E+03
C  -0.03964108 -0.80905046  0.23598929
C   0.58490784 -2.11756577 -0.21672275
C   0.23666893 -0.59013552  1.73745017
N   0.67595759  0.29286957 -0.52902809
O   1.56558872  0.00586725 -1.24029588
C   0.32142007  1.74922993 -0.38694958
C   1.32150548  2.32134460  0.64096920
C   0.55773298  2.39415911 -1.75748529
C  -1.13252946  1.87934387  0.02425426
C  -2.01465942  0.76535119  0.03468660
C  -1.52835269 -0.57910052 -0.02837140
C  -2.46768383 -1.57388192 -0.11072827
N  -2.12730442 -3.00918532 -0.17111029
O  -2.10236965 -3.62258658  0.87731933
O  -1.95402837 -3.50140186 -1.26598876
C  -3.85755559 -1.34845570 -0.08029380
C  -4.31638655 -0.07558039  0.06693258
C  -3.41081508  1.00906652  0.14131883
C  -3.88413538  2.32818726  0.33280053
C  -3.00393187  3.37052509  0.41337680
C  -1.62627945  3.14317214  0.23723497
H   1.66085939 -2.07891240 -0.05078303
H   0.39746139 -2.32823382 -1.26885261
H   0.21066402 -2.92922032  0.40229365
H   1.31022911 -0.56919358  1.92575787
H  -0.19947080 -1.44903003  2.24997219
H  -0.23144728  0.31131380  2.12833725
H   2.34162167  2.09977012  0.32804090
H   1.15225417  1.94326580  1.64654292
H   1.18898134  3.40327895  0.64572695
H   1.60491342  2.32151801 -2.04876892
H   0.29536430  3.44837163 -1.67914056
H  -0.07201323  1.93098751 -2.51940746
H  -4.53618197 -2.19084361 -0.14210782
H  -5.38105833  0.11829519  0.13278829
H  -4.95304242  2.49081532  0.41993895
H  -3.35841640  4.38165663  0.57686522
H  -0.95792045  3.99664259  0.23230909
B   4.51631739 -0.24767532  0.17583680
F   3.56556052 -0.16965354  1.21567979
F   4.29926084 -1.42306872 -0.57177232
F   4.38728097  0.87728409 -0.66535250
F   5.81344522 -0.27373760  0.72891408

