43
Total Energy                               R     -1.379350672249871E+03
C   0.49583928  1.76915310 -0.23550907
C   1.52388618  2.07265991 -1.31674858
C   0.35698562  2.97557892  0.71985302
N  -0.84271617  1.64333781 -0.95665318
O  -0.91392693  2.00258979 -2.07215391
C  -2.11296487  1.18503815 -0.28983776
C  -2.83005273  2.48019807  0.15856448
C  -2.94884610  0.48312269 -1.36644947
C  -1.78335955  0.24966717  0.85565810
C  -0.45316667 -0.14305543  1.16674858
C   0.68801660  0.49707286  0.58724455
C   1.91663170 -0.00201712  0.93424583
N   3.18918803  0.58809875  0.47869929
O   3.59929218  1.56853999  1.06886321
O   3.77951954  0.02480591 -0.41914428
C   2.11605583 -1.09142191  1.80331501
C   1.03415269 -1.66799426  2.39051093
C  -0.26906280 -1.19835511  2.10415364
C  -1.38473064 -1.77186452  2.75641121
C  -2.64489875 -1.31157807  2.49961390
C  -2.83968970 -0.30661670  1.53557816
H   1.19310685  2.92540001 -1.90734324
H   1.68699221  1.22056013 -1.97555708
H   2.46036263  2.37927383 -0.86114097
H   0.00802072  3.85710464  0.18003274
H   1.35776886  3.17118118  1.10663148
H  -0.29774598  2.76516283  1.56328064
H  -2.92506575  3.16497594 -0.68551664
H  -2.32618215  2.97455334  0.98535018
H  -3.82970479  2.19018508  0.48302431
H  -3.19718330  1.16822803 -2.17579191
H  -3.87927751  0.15319389 -0.90749544
H  -2.42339557 -0.38516700 -1.76228459
H   3.12391659 -1.43055001  2.01140294
H   1.15998058 -2.48717425  3.08938000
H  -1.21637515 -2.57347477  3.46742844
H  -3.50322575 -1.73271026  3.01026532
H  -3.85433706  0.00452200  1.31494529
B   0.07712735 -2.12809026 -1.89933108
F   1.29481472 -2.46479534 -1.28013154
F  -0.00552630 -2.75827420 -3.15775235
F  -0.99904755 -2.54395717 -1.09275599
F   0.01459800 -0.72518232 -2.08435058

