29
Total Energy                               R     -6.327823244250944E+02
C   1.54084811 -0.79504834 -0.00757596
C   2.51628449 -1.13271571  1.10796469
C  -0.54882585  1.41092185  1.44876496
N   1.24634877  0.67978171  0.02936328
O   2.08463455  1.49889414  0.08680270
C  -0.80350974 -0.33939862 -0.43648002
C  -0.44237958  2.17240720 -0.96750538
C   2.14759254 -1.04896731 -1.39645717
C  -2.26302839 -0.52752647 -0.10578456
C   0.14405563 -1.39279977  0.14864272
O  -3.08602823  0.35936539 -0.08310681
O  -2.56803629 -1.80697241  0.09714960
C  -0.22133388  1.02003196 -0.00422991
H   3.07870693 -0.49254636 -1.51214568
H   2.35795437 -2.11751826 -1.45922572
H   2.66849209 -2.21332893  1.09392841
H   3.47867975 -0.64327328  0.95312057
H   2.11007399 -0.84940979  2.08076722
H   0.07329678  2.25496166  1.74919151
H   0.07587617  3.06967363 -0.62728172
H  -1.59375046  1.71636109  1.48091914
H  -1.51198552  2.38092739 -0.99947891
H  -0.10528700  1.91126994 -1.97245735
H  -0.76345829 -0.38866819 -1.53142517
H   1.46152931 -0.77848577 -2.20102045
H  -3.52141768 -1.89774672  0.23941966
H   0.07618699 -2.34093734 -0.38040981
H  -0.07347252 -1.56653076  1.20390034
H  -0.39864657  0.58505403  2.14585488

