47
Total Energy                               R     -1.552015402922486E+03
C   0.79819867 -1.99266479  0.12198951
C   1.12685054 -2.24440163 -1.35477601
C   0.67478849 -3.33671480  0.87070399
N   2.00425225 -1.30776375  0.72787019
O   3.06859802 -1.68351837  0.40058199
C   1.89877671 -0.24426934  1.79587601
C   1.46845749 -0.98387482  3.08426114
C   3.27561597  0.36791146  1.97979577
C   0.80574996  0.72299339  1.37472137
C  -0.36072151  0.22097190  0.73839859
C  -0.43044208 -1.11125148  0.25546136
C  -1.61393846 -1.59401748 -0.22974857
C  -2.75594005 -0.77400897 -0.33525242
C  -3.98303880 -1.41995662 -0.88090409
O  -4.16362242 -2.61842182 -0.87243917
O  -4.85498420 -0.55786271 -1.39266842
C  -2.68691411  0.55089868  0.03097739
C  -3.87258964  1.47092243 -0.04860656
O  -4.73241041  1.52248123  0.79955250
O  -3.82991431  2.25947104 -1.11553818
C  -1.48619805  1.07562880  0.58247648
C  -1.38574786  2.42903391  0.99800425
C  -0.22483608  2.90051052  1.53940587
C   0.87365026  2.04023793  1.74164903
H   2.01159067 -2.87202464 -1.45431188
H   1.27640761 -1.30472258 -1.88512651
H   0.28314931 -2.77215770 -1.79760960
H   1.61785037 -3.88167737  0.81263668
H  -0.09044960 -3.92236683  0.36143806
H   0.38169952 -3.21115965  1.91059553
H   2.15189579 -1.80518444  3.30612266
H   0.44446757 -1.35039226  3.03603184
H   1.52776819 -0.24616387  3.88582951
H   4.00067233 -0.39812852  2.25250057
H   3.23211052  1.07818600  2.80394252
H   3.61212497  0.88391257  1.08031670
H  -1.68902565 -2.61182343 -0.59199950
H  -5.64332035 -1.02638909 -1.70235678
H  -4.59095736  2.85982658 -1.11508234
H  -2.23258468  3.09698089  0.88811521
H  -0.14781647  3.93737268  1.84520958
H   1.75878966  2.43927482  2.21901431
B   3.45226021  0.98592887 -1.88209311
F   4.17961692  1.97758695 -1.19336224
F   2.19282212  0.81753844 -1.26409330
F   3.26503766  1.37988650 -3.22148206
F   4.15951203 -0.23207306 -1.84132914

