34
Total Energy                               R     -7.111249245086365E+02
C  -1.36850215  1.42280968 -0.00000000
C  -1.72682645  2.19673279  1.26990967
C  -1.72682645  2.19673279 -1.26990967
N  -2.18690867  0.15273361 -0.00000000
O  -3.35906400  0.15247796 -0.00000000
C  -1.37041051 -1.11876673  0.00000000
C  -1.72682645 -1.89168911  1.27070340
C  -1.72682645 -1.89168911 -1.27070340
C   0.01775272 -0.54458660  0.00000000
C   0.01688533  0.84405584 -0.00000000
C   1.21349477  1.53777962 -0.00000000
C   2.41401100  0.83301312  0.00000000
O   3.52722063 -1.33154855  0.00000000
C   4.79044918 -0.67674745  0.00000000
C   2.40406214 -0.56478217  0.00000000
C   1.19503932 -1.26494373  0.00000000
H  -2.77462302  2.50033560  1.25260150
H  -1.09928930  3.08930328  1.29153607
H  -1.52540497  1.60280670  2.16282883
H  -2.77462302  2.50033560 -1.25260150
H  -1.52540497  1.60280670 -2.16282883
H  -1.09928930  3.08930328 -1.29153607
H  -2.77667015 -2.18793997  1.25585403
H  -1.51931653 -1.29938852  2.16329701
H  -1.10531228 -2.78835709  1.28948768
H  -2.77667015 -2.18793997 -1.25585403
H  -1.10531228 -2.78835709 -1.28948768
H  -1.51931653 -1.29938852 -2.16329701
H   1.22570271  2.62255994 -0.00000000
H   4.91385049 -0.06177338  0.89531877
H   4.91385049 -0.06177338 -0.89531877
H   5.53459121 -1.47068938  0.00000000
H   3.34546403  1.38370504  0.00000000
H   1.19802515 -2.34963293  0.00000000

