34
Total Energy                               R     -7.113157383905350E+02
C   2.46258421 -0.52838207 -0.00347399
C   1.94942994 -1.83156495 -0.00260867
C   0.58059379 -2.04716119 -0.00616314
N  -2.05088007  0.49681101 -0.08310739
O   3.82389595 -0.42948800  0.00058907
C   1.60515035  0.56959883 -0.00837837
C   4.39843705  0.87030054  0.00307250
C  -0.80456473  2.29476369 -1.22202287
C   0.23535389  0.33010911 -0.01205585
C  -0.27987746 -0.95462815 -0.01097449
C  -1.78659604 -0.96164776 -0.00528714
C  -2.36421099 -1.52250040  1.29533126
O  -3.22822732  0.96847194 -0.07071593
C  -2.38757805 -1.66582988 -1.21988771
C  -0.88226131  2.17528129  1.29441020
C  -0.85465853  1.37152773 -0.00668277
H   5.47623058  0.71916613  0.00778191
H   0.19253027 -3.06091034 -0.00478155
H  -1.95075217 -1.00303136  2.16313050
H   2.64217450 -2.66629593  0.00084751
H  -1.98243850 -1.25976243 -2.14971323
H  -2.15449260 -2.73250283 -1.17631309
H   4.10577854  1.42881054  0.89666442
H  -0.93434694  1.51381582  2.16247956
H   1.97863379  1.58636547 -0.00883977
H   4.11361137  1.42880898 -0.89303545
H   0.09717084  2.91011801 -1.17832057
H  -0.78880979  1.72054252 -2.15133639
H  -2.11807281 -2.58408661  1.37608249
H  -3.45223692 -1.42092163  1.30672953
H  -3.47467643 -1.55473730 -1.22841510
H  -1.74396781  2.84700902  1.30848604
H  -1.67149705  2.95978874 -1.23090049
H   0.02515985  2.77907380  1.37054657

