33
Total Energy                               R     -9.242120270809808E+02
C  -1.45042602  1.32849989  0.23883259
C  -0.11345375  2.01468429  0.52905676
C  -2.43158029  2.30132288 -0.41382921
N  -1.18058983  0.23228668 -0.76002049
O  -0.68430788  0.43291665 -1.80659041
C  -1.61585091 -1.11964328 -0.30364698
C  -3.03852629 -1.27810527 -0.88092121
C  -0.68058165 -2.18168376 -0.84452152
C  -1.66958630 -0.94039176  1.23819919
N  -0.47973535 -1.32781290  1.97449678
C  -2.02549814  0.54685044  1.42513393
H   0.31686097  2.43057990 -0.38289303
H   0.60121317  1.33619621  0.99294812
H  -0.31910437  2.82904106  1.22542411
H  -1.98424221  2.78098803 -1.28588553
H  -2.66980887  3.06785857  0.32551209
H  -3.35524578  1.79816146 -0.70413572
H  -3.01377475 -1.21864015 -1.97014110
H  -3.73344091 -0.53274148 -0.49317479
H  -3.38699567 -2.26830164 -0.58382313
H  -0.73973813 -2.23636223 -1.93226684
H  -0.99611688 -3.14322974 -0.43520727
H   0.35268337 -1.99782410 -0.55085931
H  -2.49029280 -1.55922825  1.59932597
H   0.34820374 -0.86032014  1.61496993
H  -0.31741273 -2.32167749  1.85250403
H  -1.61861244  0.92342203  2.36231537
H  -3.10840248  0.67041076  1.45455745
B   2.96148209  0.01343785 -0.07859104
F   4.12263449 -0.72471763 -0.38058527
F   2.38063615 -0.49720149  1.10701767
F   3.29682545  1.36801783  0.11362373
F   2.03952343 -0.10047342 -1.13723915

