45
Total Energy                               R     -7.139882781085532E+02
C  -1.38583470  1.33597943 -0.07419812
C  -1.83196853  2.30551698  1.02017836
C  -0.11864366  1.85828567 -0.74883208
N  -1.13087261  0.00688168  0.53030279
O  -0.19239226 -0.18104981  1.36670271
C  -1.86973996 -1.10977967 -0.09725591
C  -0.99893109 -1.73866839 -1.19236820
C  -2.23293309 -2.15588544  0.94410613
C  -3.07675191 -0.36210800 -0.72192953
N  -4.26539802 -0.22570210  0.11810136
C  -2.49349399  1.01076650 -1.09351620
H  -1.04797521  2.42279617  1.77289811
H  -2.74135141  1.96274580  1.51935731
H  -2.03262302  3.28549779  0.58049520
H   0.67730906  2.02194973 -0.01890996
H  -0.33597059  2.81355462 -1.23398088
H   0.23772339  1.16270746 -1.51221020
H  -0.08437436 -2.15302512 -0.76146962
H  -0.72133278 -1.01301150 -1.96059206
H  -1.54801997 -2.55309575 -1.67192104
H  -1.33575094 -2.65696617  1.31383827
H  -2.87811464 -2.91313174  0.49068916
H  -2.75851156 -1.72026575  1.79609827
H  -3.38551686 -0.89623053 -1.62169789
H  -4.02457875  0.22243611  0.99706870
H  -4.60930949 -1.14827205  0.36329539
H  -3.26908345  1.77758088 -1.09883524
H  -2.06586932  0.96821860 -2.09704884
N   3.61168270 -0.12764787 -0.01272835
C   3.26523906  0.45016463  1.31773243
C   3.81552447  0.97580279 -0.99400957
C   4.86248698 -0.92883950  0.10628108
C   2.50113788 -1.00563035 -0.48110741
H   2.89248694  1.54807230 -1.07179619
H   4.09429454  1.07094039  1.65337359
H   2.36375553  1.05030662  1.21574800
H   3.09734410 -0.36546156  2.01873908
H   2.35300414 -1.80123958  0.24671915
H   1.60040572 -0.40514956 -0.56891835
H   2.77148077 -1.42450896 -1.44891806
H   5.66523781 -0.27610918  0.44481666
H   4.69880607 -1.72742577  0.82762425
H   5.10407184 -1.34721902 -0.86926381
H   4.62478552  1.61216645 -0.64001575
H   4.07238170  0.54218799 -1.95902133

