58
Total Energy                               R     -1.004447221502801E+03
C   1.49657694  1.45189292  0.23000227
C   1.72022294  2.26259908 -1.05725484
C   2.56084864  3.51970297 -0.86353604
C   0.87495603  2.31030325  1.35511440
C  -0.40134240  3.06794248  1.01121383
N   0.62630721  0.29499563 -0.08423781
O  -0.47443474  0.41955638 -0.70688720
C   1.07239088 -0.99414569  0.49263940
C   0.57408828 -1.13028282  1.95205378
C  -0.93179690 -1.00970387  2.13237591
C   0.58422950 -2.14921749 -0.38945185
C   0.93704717 -3.53804101  0.13584234
C   2.60825231 -0.77608911  0.54171852
C   3.34982000 -1.29225971 -0.66709260
O   4.13778697 -2.21598770 -0.63273478
O   3.08236120 -0.63466073 -1.79468238
C   2.77742790  0.75166880  0.73957429
H   0.74722963  2.53747012 -1.47261945
H   2.19977657  1.60923773 -1.78857614
H   2.05272965  4.26364478 -0.24477031
H   2.76419533  3.98428824 -1.83203117
H   3.52597095  3.30082751 -0.39692363
H   1.64661880  3.01914856  1.67297389
H   0.69052987  1.66543936  2.21832262
H  -0.25325143  3.77979454  0.19491850
H  -0.73826921  3.63575029  1.88314997
H  -1.21054325  2.39336031  0.72421239
H   1.07429485 -0.38058636  2.57028705
H   0.92386467 -2.09716003  2.32332493
H  -1.29357251 -0.02864510  1.81625622
H  -1.19116985 -1.13203357  3.18739826
H  -1.47766280 -1.76980542  1.56811133
H   0.98441993 -2.01731043 -1.39831480
H  -0.49966783 -2.07223812 -0.49014837
H   1.99735528 -3.63493896  0.38433350
H   0.70781650 -4.28852445 -0.62482102
H   0.36010419 -3.79267777  1.02798431
H   3.02378804 -1.31985346  1.38843615
H   3.59112555 -1.01615538 -2.52439978
H   3.66475708  1.12169340  0.22609604
H   2.91843116  0.95098543  1.80223633
N  -4.37156516 -0.14469054 -0.46949104
C  -4.24066180  0.79358404 -1.62023565
C  -4.05436894  0.57875574  0.79467293
C  -5.76443870 -0.67004580 -0.40856981
C  -3.41770826 -1.27668911 -0.64753963
H  -3.04685068  0.98216613  0.71916600
H  -4.93030831  1.62342846 -1.47590818
H  -3.21511983  1.15742387 -1.65800631
H  -4.48346109  0.25814776 -2.53648428
H  -3.65508763 -1.78643420 -1.58002189
H  -2.40827446 -0.87237009 -0.68193046
H  -3.52683965 -1.96087438  0.19177872
H  -6.45061284  0.16733612 -0.29441286
H  -5.97633983 -1.20557666 -1.33240932
H  -5.84626071 -1.34310703  0.44325137
H  -4.77302702  1.38618393  0.92492423
H  -4.11885233 -0.12128247  1.62598954

