58
Total Energy                               R     -1.004556155515163E+03
C   1.22308757  1.55660086 -0.35137262
C  -0.09690173  2.21618820  0.08802730
C  -0.80134469  3.01901472 -1.00262327
C   2.24277416  2.61452694 -0.82243526
C   2.65462025  3.66294692  0.20461628
N   1.85887968  0.70994176  0.71697011
O   1.52915455  1.11063563  2.02964979
C   1.59648262 -0.73458422  0.44411087
C   2.71764141 -1.61927336  1.01890228
C   2.84463972 -1.71687787  2.53857179
C   0.19943575 -1.19725957  0.91558124
C  -0.07479322 -2.69999366  0.97638108
C   1.72018507 -0.69936743 -1.10877997
C   1.29950882 -1.95157909 -1.82102206
O   2.02559724 -2.91234397 -1.99868273
O   0.04059322 -1.94027839 -2.27246087
C   0.96641070  0.56480919 -1.50259609
H   0.08305107  2.86687853  0.94584259
H  -0.76927290  1.43183767  0.44553883
H  -0.22163412  3.89627323 -1.30382788
H  -1.76947420  3.38179856 -0.64397318
H  -0.99091895  2.42352754 -1.90148012
H   1.83804890  3.12359399 -1.70508667
H   3.13299970  2.07678166 -1.16941368
H   1.80439677  4.27018231  0.52997670
H   3.39635478  4.34560352 -0.22210007
H   3.09741737  3.20810048  1.09421049
H   3.66757823 -1.26076446  0.60770561
H   2.58262922 -2.63031374  0.61944204
H   3.19596755 -0.78145542  2.97761211
H   3.56515278 -2.49825317  2.80081036
H   1.89727565 -1.97004071  3.02221372
H  -0.55453892 -0.73069616  0.28113585
H   0.04095811 -0.77861287  1.91213449
H   0.07182273 -3.20970834  0.02127461
H  -1.11528565 -2.87141322  1.27067826
H   0.55360535 -3.20648776  1.71284766
H   2.78372980 -0.58593268 -1.33393125
H  -0.15130696 -2.78875911 -2.69605041
H  -0.09872728  0.35227522 -1.59518270
H   1.30007229  0.94690715 -2.47037509
N  -3.90748962 -0.05070901  0.28430391
C  -3.02586265 -0.37281543 -0.87444191
C  -3.15798942 -0.24009388  1.55943228
C  -4.35600614  1.36697943  0.18364309
C  -5.09349584 -0.95325354  0.27066500
H  -2.81638674 -1.27177951  1.61511141
H  -2.19186405  0.32538338 -0.87979759
H  -2.66784452 -1.39539496 -0.76902166
H  -3.60495677 -0.26756579 -1.79041662
H  -5.63689450 -0.80385930 -0.66080948
H  -4.74830735 -1.98317261  0.34370234
H  -5.72903007 -0.70896644  1.12020384
H  -3.47910888  2.01190897  0.20378746
H  -4.89740785  1.49816395 -0.75166470
H  -5.00502580  1.58877610  1.02904514
H  -2.30909746  0.43997369  1.57340588
H  -3.82682211 -0.01933433  2.38952400

