46
Total Energy                               R     -1.214673223735576E+03
C  -0.98514861  1.33004268  0.35591365
C   0.25341681  1.90346754 -0.36530597
C   0.96653209  2.97472619  0.44745974
C  -2.03042713  2.41781810  0.71268132
C  -2.45071540  3.36315975 -0.40008784
N  -1.63090151  0.36494419 -0.59263702
O  -1.89803038  0.64175101 -1.70636306
C  -1.92573396 -0.97272778 -0.00854336
C  -3.34195552 -0.84803299  0.65257935
C  -4.45406274 -0.31577520 -0.23569852
C  -1.91198719 -2.03217743 -1.11595972
C  -1.94477308 -3.45671289 -0.57387478
C  -0.87266846 -1.04842672  1.11294007
C   0.47233696 -1.64978226  0.76253717
O   1.11590151 -2.30756744  1.55275067
O   0.90916285 -1.32376388 -0.44256118
C  -0.66339698  0.42667564  1.55774907
H  -0.06116840  2.31235204 -1.32779865
H   0.93472680  1.07725924 -0.57011381
H   0.36293726  3.87814580  0.55816474
H   1.88903648  3.25335454 -0.06671284
H   1.24022534  2.62320501  1.44524569
H  -1.56011291  2.97503643  1.52775612
H  -2.90742075  1.93444835  1.14817282
H  -1.60830633  3.92458953 -0.80920134
H  -3.16562299  4.08442410  0.00347333
H  -2.94738959  2.84305288 -1.22278047
H  -3.26822929 -0.24767543  1.55995482
H  -3.56518953 -1.86569627  0.97893171
H  -4.29991357  0.72956413 -0.51791662
H  -5.39338863 -0.36182158  0.32001749
H  -4.58329398 -0.90300945 -1.14686014
H  -1.02161550 -1.89212069 -1.72915766
H  -2.77102112 -1.86625712 -1.76702476
H  -1.08230945 -3.68330914  0.05840535
H  -1.92459050 -4.15536358 -1.41289711
H  -2.84978063 -3.66242680  0.00158932
H  -1.27090586 -1.63534824  1.93817029
H   1.85175873 -1.56260822 -0.55078075
H   0.35493248  0.59257133  1.90664183
H  -1.33237161  0.64929586  2.38769628
B   3.97430294  0.01136702 -0.26799882
F   5.36636249  0.05393175 -0.10617300
F   3.59986376 -1.31182124 -0.67351645
F   3.33346124  0.30929177  0.94544289
F   3.57131659  0.91637636 -1.26236177

