60
Total Energy                               R     -1.593607933431817E+03
C   1.22468977 -1.27044212 -1.84574643
C   1.19887771  0.09232303 -2.54718912
C   1.52811749 -2.38491663 -2.86933977
N   2.40320347 -1.25553598 -0.90304192
O   3.36592903 -0.66269490 -1.22685362
C   2.39557025 -1.98996722  0.41570850
C   2.35871518 -3.49985624  0.10140243
C   3.67602517 -1.63322873  1.14666759
C   1.10786734 -1.57326666  1.11373055
C  -0.09020029 -1.47053347  0.35396643
C  -0.06103376 -1.48510048 -1.06671038
C  -1.22994360 -1.54704459 -1.78105074
C  -2.46737736 -1.50484149 -1.12616855
C  -2.50286086 -1.35167331  0.23029262
N  -3.82770914 -1.15030770  0.81428877
O  -4.75709317 -1.79154683  0.35286763
O  -3.95309006 -0.33361721  1.70901405
C  -1.33357817 -1.33799035  1.03664065
C  -1.33120252 -1.24217844  2.45040870
C  -0.15249800 -1.26700024  3.14133496
C   1.07544052 -1.44175190  2.47555511
H   2.11445159  0.25611300 -3.11379286
H   1.05803261  0.90023777 -1.82797396
H   0.36012133  0.09448459 -3.24106502
H   2.51331533 -2.22165461 -3.30854674
H   0.78251337 -2.30664743 -3.66049119
H   1.47530057 -3.38031275 -2.43495706
H   3.18051685 -3.77933805 -0.55971885
H   1.40962724 -3.81936225 -0.32554148
H   2.48657540 -4.00745055  1.05857399
H   4.54330915 -1.92688879  0.55507202
H   3.71235039 -2.19393299  2.07893946
H   3.73678328 -0.56671740  1.36778569
H  -1.22136457 -1.56808928 -2.86382939
H  -3.38382495 -1.51662374 -1.70135142
H  -2.26187180 -1.15081293  2.99195721
H  -0.15971567 -1.18288406  4.22187445
H   1.98088949 -1.50477036  3.06436915
N   2.18122972  2.97466681  0.67587099
C   3.31516320  2.61146432 -0.22086773
C   1.57895905  1.73056911  1.23171074
C   2.68044233  3.82622099  1.79124708
C   1.15088993  3.72106525 -0.10096426
H   1.20798825  1.13485390  0.40293082
H   4.05195301  2.05390573  0.35496454
H   2.93424304  2.00293584 -1.03818351
H   3.75760525  3.52619811 -0.61195242
H   1.60743277  4.62108845 -0.50940334
H   0.79144922  3.08293254 -0.90562205
H   0.33307511  3.98288750  0.56672148
H   3.42546998  3.26524967  2.35298700
H   3.12585291  4.72703054  1.37290438
H   1.84163938  4.08579086  2.43480393
H   2.34592117  1.19096171  1.78250031
H   0.75769907  1.99861540  1.89331042
B  -2.33510978  2.20742439 -0.84634992
F  -1.72909695  1.85491621 -2.07016050
F  -2.41936548  3.61479994 -0.75714083
F  -3.63267352  1.65586216 -0.79016697
F  -1.56410904  1.71831971  0.22420878

