60
Total Energy                               R     -1.593797759313242E+03
C   0.43797446 -1.87519966 -1.46048223
C   1.19145610 -0.80835724 -2.27130049
C   0.29959121 -3.16038683 -2.29365854
N   1.26266791 -2.16489248 -0.26098948
O   2.46489928 -2.51625776 -0.48585655
C   0.67250741 -2.48338368  1.06592967
C   0.06801610 -3.90074544  1.02060575
C   1.78280784 -2.44488991  2.11273124
C  -0.43466890 -1.48197379  1.35326595
C  -1.25514400 -1.01882604  0.28311121
C  -0.91771513 -1.31060548 -1.06724217
C  -1.79932667 -0.99209829 -2.07428916
C  -2.99775857 -0.32820877 -1.80059679
C  -3.27750176  0.05711383 -0.51767804
N  -4.50490229  0.82671796 -0.34022304
O  -5.46676562  0.53267502 -1.03388835
O  -4.52155802  1.74123721  0.46628340
C  -2.43396204 -0.26611638  0.58030451
C  -2.72136152  0.05793272  1.92959257
C  -1.87917752 -0.34826038  2.92523886
C  -0.74282244 -1.12838656  2.64109983
H   2.16265371 -1.19337256 -2.58235619
H   1.33522364  0.09800859 -1.67982591
H   0.62514203 -0.55128378 -3.16683256
H   1.28962146 -3.57771245 -2.48504899
H  -0.16178574 -2.93480576 -3.25621797
H  -0.30954938 -3.91011385 -1.78792584
H   0.82347992 -4.61921689  0.69255149
H  -0.79025675 -3.95693494  0.34908767
H  -0.26872500 -4.17849373  2.02170255
H   2.59427072 -3.11260293  1.82913582
H   1.39721168 -2.79174253  3.07113976
H   2.18061670 -1.43740371  2.24447708
H  -1.56553373 -1.21560663 -3.10756634
H  -3.67298012 -0.07264159 -2.60707967
H  -3.60719683  0.62365563  2.17899588
H  -2.10141875 -0.09160940  3.95514270
H  -0.13555957 -1.46964572  3.46926848
N   4.20071574  1.36938146 -0.05528015
C   4.67675308  0.57761804 -1.22472122
C   3.41698242  0.48610676  0.85400748
C   5.37220572  1.92403752  0.68012724
C   3.33415519  2.48614022 -0.52820941
H   2.54325113  0.12287888  0.31844764
H   5.30073579 -0.23805940 -0.86374283
H   3.81252532  0.18365141 -1.75459643
H   5.25201918  1.23181622 -1.87784548
H   3.91820486  3.12529666 -1.18843957
H   2.48663842  2.06541438 -1.06470744
H   2.99159637  3.05041041  0.33586989
H   5.98854493  1.09795812  1.03056668
H   5.94201956  2.55773714  0.00267408
H   5.00976265  2.50711239  1.52502105
H   4.04912546 -0.34702913  1.15518595
H   3.11138456  1.06361690  1.72454551
B  -0.32893514  2.81254439  0.03223434
F  -0.41438510  2.17240427 -1.22113884
F   0.44812244  3.98533283 -0.09508549
F  -1.62224323  3.15801703  0.47415601
F   0.27335175  1.94860678  0.96799326

