29
Total Energy                               R     -5.379313483413524E+02
C   1.22071446 -0.86763842  0.06021116
C   1.85132839 -1.10715159 -1.32237461
C   2.03226910 -1.64770986  1.09731778
N   1.10986475  0.55516112  0.47879056
O   2.19261710  1.36197781  0.06777975
C  -0.22533574  1.06245216  0.05715483
C  -0.72140129  2.08754300  1.07950483
C  -0.28012890  1.71013703 -1.33902510
C  -1.03828810 -0.21923977  0.06896789
C  -2.53186533 -0.19454870  0.05149463
N  -3.12540616 -1.53072889 -0.00439937
C  -0.22934213 -1.27490037  0.05595604
H   2.90530016 -0.81614338 -1.32987073
H   1.34117335 -0.55707128 -2.11456616
H   1.79832207 -2.17240771 -1.56928930
H   3.05148701 -1.25259782  1.16165191
H   2.10177077 -2.70697665  0.82825064
H   1.57397131 -1.57556639  2.08778762
H  -0.01987135  2.92576066  1.13811898
H  -0.80569544  1.64216781  2.07492276
H  -1.69920088  2.49308848  0.80069662
H   0.35604830  2.59791055 -1.37923769
H  -1.30258789  2.02641163 -1.56475338
H   0.03818516  1.02680088 -2.12788855
H  -2.85857830  0.44626401 -0.78049476
H  -2.88937163  0.29912171  0.96124162
H  -2.82431968 -1.98900755 -0.85900322
H  -4.13169803 -1.43188756 -0.07940896
H  -0.53478462 -2.31637634  0.03362150

