29
Total Energy                               R     -5.376343676898509E+02
C   1.21628113 -0.93374107  0.00752897
C   1.96857829 -1.40969200 -1.23552137
C   1.94537828 -1.30757891  1.30201010
N   1.13728378  0.56590418 -0.04132983
O   2.07967306  1.26222807 -0.09801661
C  -0.27494752  1.08790441 -0.00124171
C  -0.41516799  1.90602227  1.28675885
C  -0.48933591  1.94728311 -1.24816275
C  -1.04376987 -0.21225949  0.01221689
C  -2.53664881 -0.18865513  0.01111621
N  -3.11189586 -1.52811317  0.06417652
C  -0.24284167 -1.27130571  0.01502126
H   2.99956272 -1.05260832 -1.22275750
H   1.47155223 -1.07642953 -2.14802604
H   1.97272956 -2.50066371 -1.21587310
H   2.97646464 -0.95102085  1.27780664
H   1.94760456 -2.39654543  1.37088604
H   1.43149541 -0.90055476  2.17428518
H   0.26517356  2.75902458  1.26823150
H  -0.21744956  1.29270022  2.16739695
H  -1.44028681  2.27546140  1.33493625
H   0.20247924  2.79110397 -1.24981476
H  -1.50880659  2.33344211 -1.21699092
H  -0.36020183  1.35969857 -2.15854605
H  -2.86772114  0.38731270 -0.86401999
H  -2.87825916  0.37132239  0.88674127
H  -2.89844964 -2.01695965 -0.79974990
H  -4.12114549 -1.43853403  0.09329940
H  -0.55499723 -2.30697619  0.02804237

