29
Total Energy                               R     -5.378231348328145E+02
C   1.23196357 -0.90350767  0.01734484
C   1.92085816 -1.32123495 -1.28354866
C   1.99560300 -1.42999802  1.23142863
N   1.12317446  0.57009808  0.08182265
O   2.13678999  1.33288468  0.03947860
C  -0.26246982  1.08631393  0.00318700
C  -0.55174398  1.98646869  1.20376807
C  -0.45000472  1.85379411 -1.30813803
C  -1.03631896 -0.21641846  0.03513605
C  -2.52971990 -0.20539011  0.03630801
N  -3.10500947 -1.54820748  0.06863474
C  -0.22564917 -1.27066608  0.03832324
H   2.95473049 -0.96677614 -1.30265739
H   1.39335627 -0.91889809 -2.15183593
H   1.93200254 -2.41141611 -1.35926988
H   3.02393345 -1.05924914  1.22982712
H   2.02729374 -2.52192860  1.19970062
H   1.51143280 -1.12486326  2.16226400
H   0.13572224  2.83591202  1.21240212
H  -0.44598422  1.43726138  2.14259489
H  -1.56990868  2.37722969  1.14210768
H   0.22985243  2.70866931 -1.34346432
H  -1.47218462  2.23139915 -1.38008200
H  -0.25348871  1.21129159 -2.16995492
H  -2.86962843  0.38172312 -0.82866299
H  -2.87756155  0.33835467  0.92023664
H  -2.84712821 -2.03958558 -0.78169904
H  -4.11490166 -1.46237080  0.04617743
H  -0.53412169 -2.30923353  0.05043058

