35
Total Energy                               R     -9.833949163351622E+02
C   1.26791246  1.39448189 -0.10064297
C   0.65962875  2.58030455  0.63255065
C   2.70724455  1.72857336 -0.53694008
N   1.36854379  0.24017274  0.88650356
O   1.34755798  0.48855368  2.03847092
C   1.54310031 -1.21180529  0.46436875
C   3.03561460 -1.40201204  0.13216116
C   1.16311254 -2.08720759  1.64905521
C   0.62983167 -1.48150090 -0.73600737
C   0.66708992 -0.42685448 -1.83649148
O  -0.27839148 -0.74306555 -2.84365514
C   0.38286794  0.96131803 -1.27389226
H   1.32726977  2.97890769  1.39726486
H  -0.30007656  2.32292508  1.08383088
H   0.48966097  3.36100053 -0.11103341
H   3.37484511  1.82250691  0.32163125
H   2.65297756  2.69770383 -1.03581456
H   3.11692049  1.00909344 -1.24151904
H   3.67506000 -1.00314615  0.92204227
H   3.32109524 -0.96888973 -0.82303794
H   3.19546523 -2.48018915  0.07558142
H   1.87004344 -1.99328051  2.47433244
H   1.18309031 -3.12109391  1.30025261
H   0.15557869 -1.86588802  2.00516709
H  -0.39534487 -1.57600399 -0.37349706
H   0.92839637 -2.45122100 -1.14087277
H   1.63601932 -0.43860691 -2.33900529
H  -1.15506134 -0.74514104 -2.43818750
H  -0.65842672  1.00563794 -0.95137590
H   0.51313554  1.71310143 -2.05556516
B  -2.81926128 -0.00273073  0.31805797
F  -1.65322505 -0.08447705  1.11205588
F  -3.12105517  1.34711618  0.06668052
F  -2.59405204 -0.66617053 -0.91868471
F  -3.88787852 -0.62209772  0.98555888

