28
Total Energy                               R     -4.998546268342629E+02
C  -0.94303861  0.49970066 -0.07547541
C  -1.00588907 -0.99442292 -0.45784605
C   0.33505060 -1.52861684  0.04023203
N  -2.13170994 -1.78291033  0.03497681
O   0.91693603  2.06126234 -0.06883960
C   1.31802803 -0.33872805 -0.03683467
C   2.02610516 -0.12730687  1.30851611
C   2.38732085 -0.56607296 -1.10791577
C  -1.90553799  1.33650414 -0.91075103
N   0.44822078  0.79120971 -0.47222925
C  -1.26998056  0.71524208  1.41074505
H   0.67478410 -2.39133142 -0.53933432
H  -1.03502807 -1.04560106 -1.55063090
H  -2.99955132 -1.34893249 -0.26533741
H   0.22553762 -1.86250599  1.07796977
H  -2.14142523 -1.75060427  1.05018759
H  -0.78142483 -0.00934068  2.06624888
H   2.53893777 -1.05119831  1.59590549
H   1.33095600  0.13146625  2.10932446
H   2.77806225  0.66325959  1.24693391
H   3.06954100 -1.37419006 -0.82204298
H   2.98401890  0.34029135 -1.25558209
H   1.92835199 -0.83134465 -2.06531715
H  -0.96065796  1.71488679  1.72556324
H  -1.68894947  1.23261886 -1.97831361
H  -1.83746611  2.39728930 -0.64998407
H  -2.94132787  1.02293269 -0.74033231
H  -2.34777336  0.63631426  1.58220391

