28
Total Energy                               R     -4.997487320314665E+02
C   1.35729202 -0.35552685  0.00066999
C  -1.52207309  0.71413016  1.40180100
C  -1.75016634  1.36116758 -1.01256769
N   0.45025968  0.81753888 -0.04132841
O   0.88673608  2.01038268  0.01052091
C   0.35830930 -1.50899926  0.15484061
C   2.12846224 -0.43063190 -1.31805782
C   2.31288351 -0.23555292  1.18181789
C  -0.95286559 -0.99455257 -0.43391055
N  -2.08772690 -1.81961170 -0.05565493
C  -0.99103376  0.49796729 -0.01688298
H   2.99396674  0.60940099  1.05545691
H   1.76340427 -0.10733483  2.11803673
H  -1.35466186  1.75074177  1.70475064
H   2.71013751  0.48110800 -1.47680542
H  -1.74868202  2.41185576 -0.71315289
H  -1.31862100  1.28063598 -2.01363182
H   2.81869339 -1.27758456 -1.29287835
H   1.45100532 -0.56273634 -2.16596171
H  -0.88271333 -1.01716419 -1.52551832
H   2.91206362 -1.14668777  1.25673825
H   0.70559499 -2.41370188 -0.34681972
H   0.21620391 -1.74453588  1.21479809
H  -2.94048392 -1.41206498 -0.42664902
H  -1.02828059  0.06134878  2.12662601
H  -2.18680298 -1.81739179  0.95491191
H  -2.59704242  0.52157303  1.43789715
H  -2.79024957  1.02597702 -1.05934516

