55
Total Energy                               R     -1.169266480356921E+03
C   1.98310156 -0.57218954 -1.42287122
C   1.89518278  0.36919523 -2.64055220
C   2.73186120 -1.85453675 -1.85252733
N   2.62760365  0.21992523 -0.35207873
O   3.97606523  0.46939338 -0.69415599
C   2.53492956 -0.29375837  1.03398417
C   3.31896771 -1.59475177  1.31835457
C   3.09569529  0.81629663  1.93778462
C   1.07080293 -0.54315566  1.37135612
C   0.14275231 -0.87818637  0.34268909
C   0.57148171 -0.95917094 -1.01220869
C  -0.30785733 -1.40985433 -1.97319087
C  -1.63716223 -1.70527994 -1.66347612
C  -2.08316902 -1.53343052 -0.38083189
N  -3.50972514 -1.72925594 -0.17086012
O  -4.07011088 -2.61601470 -0.79830393
O  -4.10094053 -0.98178939  0.59350845
C  -1.22070215 -1.14939900  0.68285967
C  -1.62209178 -1.08580582  2.03872408
C  -0.70465957 -0.78089873  3.00539085
C   0.63459640 -0.51184827  2.67363962
H   2.89340463  0.71225716 -2.91300312
H   1.28284651  1.24393820 -2.40377452
H   1.46691521 -0.12624509 -3.51336261
H   3.78687279 -1.63298569 -2.02035106
H   2.31334690 -2.23525932 -2.78775134
H   2.65735576 -2.65055022 -1.11178518
H   4.32716728 -1.52790499  0.90302237
H   2.82602799 -2.47401171  0.90151551
H   3.40446704 -1.74975798  2.39756837
H   4.13079739  1.02341362  1.66947521
H   3.08594788  0.52886956  2.98979711
H   2.51737763  1.73814870  1.82456233
H   0.00700754 -1.51664100 -3.00286280
H  -2.32112493 -2.01664913 -2.44294959
H  -2.64386342 -1.29738895  2.32047514
H  -1.01100001 -0.74982603  4.04558897
H   1.32180530 -0.28599062  3.47873115
N  -1.22705404  3.04095402 -0.23764750
C  -1.95372191  1.88982752 -0.84450848
C  -2.19094733  3.89977183  0.50563208
C  -0.18549005  2.53239798  0.70055471
C  -0.57487462  3.83757603 -1.31413961
H  -2.95406249  4.25045516 -0.18712477
H  -2.45207163  1.33687224 -0.05088043
H  -2.68763342  2.27491209 -1.55066133
H  -1.23319519  1.25613005 -1.35869206
H   0.11188112  3.19101814 -1.85784940
H  -1.34426667  4.21710729 -1.98430242
H  -0.03112748  4.66342423 -0.85904587
H  -0.66899129  1.91757527  1.45837013
H   0.53500628  1.94086924  0.13782786
H   0.30820109  3.38455128  1.16502620
H  -2.64588701  3.30802978  1.29826409
H  -1.65125931  4.74476587  0.92990928

