43
Total Energy                               R     -1.379360352477870E+03
C  -1.53811044  1.40311662 -1.11559592
C  -1.76211067  0.73234923 -2.47559902
C  -2.02593274  2.86906998 -1.18031624
N  -2.44919706  0.70948094 -0.13084211
O  -3.49047790  0.32906191 -0.52143071
C  -2.12430271  0.56645196  1.33733530
C  -2.29772034  1.97261291  1.95720133
C  -3.13620008 -0.39653625  1.93554085
C  -0.67308810  0.12894739  1.45458226
C   0.28972566  0.57718232  0.50826494
C  -0.09291732  1.28405388 -0.66420516
C   0.86199981  1.82354755 -1.48907713
C   2.22401730  1.61940531 -1.23891018
C   2.59808345  0.84523259 -0.17867711
N   4.03018115  0.57343509 -0.05742572
O   4.80414595  1.48850753 -0.28049426
O   4.38640299 -0.55645705  0.22806797
C   1.67001360  0.30904496  0.75256140
C   2.04182542 -0.40708666  1.91693873
C   1.08539481 -0.84597170  2.78665241
C  -0.27701476 -0.57958230  2.55711515
H  -2.79226612  0.86386850 -2.80368319
H  -1.51722218 -0.32731554 -2.43462311
H  -1.11285714  1.21710742 -3.20273828
H  -3.09874846  2.89548948 -1.37582462
H  -1.51177368  3.33702760 -2.01987207
H  -1.79713260  3.42810402 -0.27651922
H  -3.27657363  2.38853578  1.71281798
H  -1.50961679  2.65975101  1.65479018
H  -2.23075319  1.83226696  3.03689671
H  -4.15019459 -0.02413281  1.79428854
H  -2.96452751 -0.46027710  3.00809094
H  -3.04859309 -1.39228567  1.49978144
H   0.58462880  2.38522690 -2.37203352
H   2.96670109  2.02602816 -1.91335422
H   3.08367932 -0.60257437  2.12854423
H   1.37416006 -1.39319599  3.67658671
H  -0.99795611 -0.92229302  3.28715491
B  -0.37866158 -2.64335870 -0.99102568
F   0.44628517 -1.82113808 -1.78235537
F  -0.76068363 -3.77976996 -1.73368881
F   0.31880458 -3.04605777  0.16256417
F  -1.54185953 -1.92802038 -0.61533263

