49
Total Energy                               R     -8.866233928683521E+02
C   1.03370467  1.72361323  0.00416866
C  -0.00559328  2.52682836  0.79494394
C   2.01104012  2.76861965 -0.56245582
N   1.70942105  0.77291417  0.94815682
O   0.69877934  0.02107162  1.61332269
C   2.62112790 -0.21351908  0.30890141
C   3.87135524  0.43317090 -0.32218450
C   3.19021629 -1.11485621  1.41315072
C   1.88669360 -1.02504197 -0.82337600
C   0.97741382 -2.12341142 -0.32725783
O   1.36121589 -3.12271118  0.25840976
O  -0.30919188 -2.00180549 -0.67987995
C   1.21417671 -0.06646785 -1.81911696
C   0.32750513  0.97717883 -1.14201259
H   0.47350534  3.08560292  1.60676853
H  -0.78419812  1.89973757  1.22542767
H  -0.48738546  3.25261596  0.13226391
H   2.69260397  3.13139824  0.21170477
H   1.43952846  3.62697689 -0.92702502
H   2.60712398  2.41630581 -1.40132929
H   4.26544452  1.21796530  0.32722215
H   3.71916677  0.85512479 -1.31188190
H   4.64661036 -0.33068052 -0.42477063
H   3.80463868 -0.50500224  2.08385182
H   3.83489930 -1.88370362  0.97906123
H   2.42554186 -1.60638372  2.00616436
H   2.67508216 -1.57720547 -1.34771863
H  -0.80296800 -2.75930376 -0.33786920
H   0.63076576 -0.63489119 -2.54766783
H   1.99828524  0.43159821 -2.39476623
H  -0.56546274  0.48940647 -0.74928932
H  -0.01702908  1.70469911 -1.88564974
N  -3.75007934 -0.01681167  0.08031021
C  -5.15733973 -0.26450971  0.50246244
C  -3.54940599  1.44323796 -0.14428216
C  -2.82370736 -0.49289085  1.14717743
C  -3.47300104 -0.75197962 -1.18658487
H  -4.24866066  1.77584154 -0.90967442
H  -5.34464638  0.27793854  1.42762178
H  -5.82605493  0.08744825 -0.28098990
H  -5.29218185 -1.33320150  0.66046761
H  -3.59508105 -1.81871351 -1.00659331
H  -4.17772233 -0.41536396 -1.94512908
H  -2.45359710 -0.53726599 -1.49994615
H  -3.03647708  0.05585266  2.06315853
H  -2.98897378 -1.55815707  1.30040476
H  -1.79779718 -0.31403905  0.83392442
H  -3.73572146  1.97009946  0.79004552
H  -2.52617436  1.61030941 -0.47307881

