49
Total Energy                               R     -8.865169396368728E+02
C   0.69502657  1.54073520 -0.01158691
C   0.27040201  2.33131512 -1.24826079
C  -0.27589382  1.84551774  1.13767625
N   0.63054142  0.08613546 -0.35025205
O  -0.38302451 -0.30007016 -1.02209565
C   1.36677459 -0.97333496  0.39549374
C   0.61251457 -1.30804527  1.69341068
C   1.41314829 -2.24017278 -0.46232711
C   2.79690160 -0.49476545  0.74487287
C   3.79765266 -0.64247772 -0.38123668
O   4.87413486 -1.19096418 -0.25158733
O   3.42253912 -0.09040222 -1.53484452
C   2.81672503  0.94181845  1.29376266
C   2.13308747  1.92751312  0.35872310
H  -0.78957658  2.20082055 -1.47250975
H   0.85468220  2.03816105 -2.12401543
H   0.44878782  3.39293248 -1.05973643
H  -1.26174389  1.42622451  0.92881336
H  -0.38162759  2.92926008  1.23341907
H   0.06994874  1.45898568  2.09670545
H  -0.44082383 -1.49501750  1.47305440
H   0.67568431 -0.51799301  2.44066053
H   1.03616849 -2.21691585  2.12740640
H   0.43156180 -2.71036225 -0.52197701
H   2.09795315 -2.95244704  0.00524885
H   1.76006146 -2.04089935 -1.47711657
H   3.16347495 -1.16561374  1.52372419
H   4.11633460 -0.21531685 -2.19824491
H   3.85044499  1.25013603  1.47064041
H   2.32693033  0.93676626  2.27032529
H   2.71787900  2.03731271 -0.55685126
H   2.09764547  2.91465240  0.82752315
N  -4.28366251 -0.29684220 -0.07415816
C  -3.23076499 -0.98516733  0.72697644
C  -5.01466010 -1.30344709 -0.89560590
C  -5.23957697  0.38459750  0.84374924
C  -3.65423421  0.71391726 -0.97228495
H  -4.30403413 -1.79608597 -1.55708239
H  -3.70999445 -1.72373196  1.36748292
H  -2.53570860 -1.47112017  0.04578378
H  -2.71149421 -0.24503023  1.33221820
H  -3.12688805  1.44394775 -0.36143057
H  -2.96122048  0.20661218 -1.63957567
H  -4.43995341  1.20309786 -1.54571750
H  -5.69251674 -0.36189509  1.49379831
H  -4.69392802  1.11712049  1.43598513
H  -6.00526883  0.87817184  0.24764963
H  -5.47399423 -2.03085802 -0.22862596
H  -5.77874844 -0.79249799 -1.47863997

