67
Total Energy                               R     -1.581326513882711E+03
C   0.81934493 -0.36494645 -0.60053075
C   1.74855488 -1.44925244 -1.16614974
C   2.17640466 -2.52702032 -0.18166966
C   0.59610991  0.79463292 -1.61529277
C  -0.04763750  0.36226735 -2.92365882
N   1.47042054  0.30918963  0.58281758
O   2.50656971  0.85845671  0.50400761
C   0.67790410  0.25511490  1.85185278
C   1.42795123 -0.69710223  2.83786115
C   2.84047169 -0.30873951  3.23695253
C   0.51224364  1.66897298  2.43043188
C  -0.28467385  2.64130702  1.57266623
C  -0.56731579 -0.42597343  1.36102495
C  -0.45129440 -0.84818782  0.04226010
C  -1.45509106 -1.59660652 -0.54492974
C  -2.60483317 -1.86986376  0.19510563
C  -3.70489504 -2.60545814 -0.47874007
O  -3.65817405 -2.99348203 -1.62872898
O  -4.77279828 -2.79577378  0.29714805
C  -2.72861194 -1.41910872  1.51218553
C  -1.70100900 -0.70188334  2.10801876
H   2.61637504 -0.95203403 -1.60510786
H   1.18795666 -1.90180810 -1.98748925
H   2.81696899 -2.13009976  0.60952810
H   2.75092406 -3.29025547 -0.71068559
H   1.31610236 -3.01695093  0.28195652
H   1.57508325  1.23965612 -1.81064819
H  -0.02461219  1.55357054 -1.13580222
H   0.58077142 -0.33274342 -3.48315067
H  -0.19376689  1.25027062 -3.54317620
H  -1.02668373 -0.09579959 -2.77600945
H   1.41471088 -1.70367747  2.41646722
H   0.77178626 -0.71530299  3.71251645
H   3.53796148 -0.34370622  2.39618508
H   3.19731593 -1.03102487  3.97546124
H   2.89230160  0.68229113  3.69116421
H   1.50401461  2.07231123  2.64237473
H   0.01778045  1.51918550  3.39392385
H   0.22230555  2.86799400  0.63127356
H  -0.40107568  3.58302174  2.11354733
H  -1.28328206  2.26216183  1.34638645
H  -1.36484465 -1.95968194 -1.56100424
H  -5.45351348 -3.26677760 -0.20346368
H  -3.62836342 -1.63031501  2.07591456
H  -1.78428048 -0.36621111  3.13543878
N  -4.27236620  1.97262747 -0.65358715
C  -2.89158968  1.57811679 -1.05118950
C  -5.09037943  0.75061364 -0.40911604
C  -4.21243182  2.78365451  0.59526421
C  -4.89128003  2.77492930 -1.74564044
H  -5.07395976  0.13120330 -1.30427294
H  -2.44727360  1.01430254 -0.23583580
H  -2.94950411  0.96690428 -1.94953000
H  -2.31289404  2.48029527 -1.24303679
H  -4.28119129  3.65982311 -1.91799081
H  -4.93141626  2.16532614 -2.64667383
H  -5.89613921  3.06381382 -1.44244126
H  -3.76159251  2.17903343  1.38058959
H  -3.60901307  3.67028443  0.40837176
H  -5.22496694  3.06923152  0.87561084
H  -4.66493198  0.21097617  0.43337180
H  -6.11030956  1.05492419 -0.18025940
B   5.51157412  0.31039935 -0.99510778
F   6.77962305  0.09165168 -1.57445619
F   4.57972114  0.61109877 -2.01096740
F   5.10462272 -0.85029190 -0.30690919
F   5.58765223  1.39072850 -0.09124817

