67
Total Energy                               R     -1.581612688664995E+03
C  -2.17266982 -1.89088956  0.19281401
C  -3.03452413 -2.74413242  1.14946286
C  -3.36918991 -2.09546062  2.48674244
C  -2.11437580 -2.59660066 -1.18490453
C  -3.38645823 -2.56784844 -2.02894597
N  -0.83126053 -1.67646929  0.80921821
O   0.12915238 -2.65310836  0.47770567
C  -0.37480833 -0.26738173  0.65623257
C   0.10611237  0.26753060  2.03095587
C   1.33330471 -0.41819091  2.62357974
C   0.73109309  0.02851212 -0.38060579
C   0.46204019 -0.26727900 -1.84968959
C  -1.65524051  0.43531512  0.29300961
C  -2.67858735 -0.47546198  0.07097561
C  -3.96065172 -0.02952081 -0.20756212
C  -4.20070126  1.34320623 -0.30889823
C  -5.57537543  1.79311841 -0.61612521
O  -6.52867346  1.05055848 -0.76394215
O  -5.69796769  3.12185825 -0.72498567
C  -3.15661598  2.25706089 -0.12056892
C  -1.88268747  1.80373299  0.18996091
H  -2.48625048 -3.67845143  1.31822833
H  -3.96624236 -3.02451972  0.64622810
H  -2.46732534 -1.74426380  2.99496477
H  -3.86974894 -2.80957435  3.14764184
H  -4.03799249 -1.23793742  2.36582053
H  -1.82930283 -3.63802056 -1.00689510
H  -1.30577919 -2.15734872 -1.76807787
H  -4.26067807 -2.95091964 -1.49497024
H  -3.25237990 -3.19137830 -2.91830305
H  -3.62547188 -1.55913414 -2.37625177
H  -0.73022840  0.16853543  2.73158272
H   0.30811551  1.34132378  1.93677938
H   1.16010473 -1.48497179  2.78375581
H   1.57857336  0.02607813  3.59342425
H   2.21654729 -0.31419321  1.98799548
H   1.63229331 -0.50029505 -0.07567583
H   0.96137843  1.09359099 -0.27576901
H   0.49954593 -1.33711474 -2.06290097
H   1.22559429  0.21412525 -2.46938406
H  -0.51108900  0.10989014 -2.18007877
H  -4.77724085 -0.72950709 -0.34238797
H  -6.61896125  3.33850196 -0.92451102
H  -3.34324675  3.32070939 -0.20527562
H  -1.07862393  2.51452118  0.35246953
N   4.71016560 -1.75386181 -0.59418560
C   5.72931440 -1.89544095  0.48319958
C   3.50085911 -2.55163717 -0.24195513
C   4.33663688 -0.31691443 -0.73631725
C   5.27215680 -2.24702322 -1.88248017
H   3.78865029 -3.59780325 -0.15103913
H   5.30349259 -1.52778648  1.41526802
H   5.99396016 -2.94703622  0.57964176
H   6.60676832 -1.30961124  0.21470195
H   6.15187706 -1.65526924 -2.12952206
H   5.54369989 -3.29513129 -1.76841856
H   4.51538286 -2.13738274 -2.65745675
H   3.93293737  0.03417669  0.21082566
H   5.22939390  0.24747491 -0.99876557
H   3.59014320 -0.22862997 -1.52297950
H   3.10452518 -2.18788424  0.70381766
H   2.76148037 -2.43255549 -1.03171294
B   3.61406850  3.06521309  0.10331401
F   3.06696648  2.33368850  1.17693425
F   3.22444201  4.41747851  0.21058450
F   5.02207453  2.97667277  0.14633373
F   3.14824366  2.54009477 -1.11919391

