67
Total Energy                               R     -1.581509517791566E+03
C  -1.14733965  1.12873157  0.64231334
C  -1.19689483  2.40035288 -0.21776656
C  -0.92407212  2.19226494 -1.70082467
C  -1.29577928  1.45718924  2.14410214
C  -2.56886351  2.18889300  2.55019832
N   0.15530183  0.42945668  0.46242390
O   1.23714763  0.92761076  0.89756615
C   0.08028304 -0.95707996 -0.05829645
C   0.67567057 -1.06132862 -1.48431796
C   2.10616428 -0.56846772 -1.66287578
C   0.75949704 -1.94789437  0.89769078
C   0.25412711 -1.92074075  2.33300063
C  -1.41382805 -1.12495281 -0.14466568
C  -2.09023913  0.04722907  0.17656061
C  -3.46475752  0.12099241  0.03177868
C  -4.16386096 -1.01043831 -0.39445321
C  -5.63487664 -0.90768758 -0.54229632
O  -6.28099429  0.09335196 -0.29908227
O  -6.20960400 -2.03251901 -0.97965276
C  -3.48255477 -2.19808332 -0.67931806
C  -2.10076673 -2.25517242 -0.56409510
H  -0.47987532  3.11221217  0.20354853
H  -2.18655861  2.84710034 -0.09083265
H   0.06956451  1.77554766 -1.88136698
H  -0.98182573  3.14677295 -2.23062738
H  -1.65588151  1.51651351 -2.15300996
H  -0.42651093  2.05930550  2.42518207
H  -1.22559229  0.51970971  2.70234889
H  -2.67026196  3.15680773  2.05398530
H  -2.54862333  2.37565748  3.62726524
H  -3.46710577  1.60289421  2.34179820
H   0.01987883 -0.51875669 -2.17066566
H   0.60757830 -2.11724600 -1.76488134
H   2.17764842  0.51374209 -1.53540454
H   2.44629345 -0.80301619 -2.67545106
H   2.80301666 -1.03766026 -0.96593089
H   1.83607079 -1.76612068  0.88350683
H   0.61021300 -2.94260199  0.46801440
H   0.49168074 -0.97529248  2.82662666
H   0.72860481 -2.71968997  2.90894822
H  -0.82839160 -2.06968679  2.38773573
H  -4.00006308  1.04172506  0.22978490
H  -7.16404326 -1.89624520 -1.05833913
H  -4.02991954 -3.07423224 -1.00391299
H  -1.56848653 -3.16837120 -0.80838381
N   2.56791648  4.61552336 -0.31270085
C   2.30844745  4.44417198  1.14581895
C   2.63380158  3.27686123 -0.96484302
C   1.46483053  5.40991388 -0.92440688
C   3.86229603  5.32771404 -0.50855168
H   3.45764799  2.71546180 -0.52805042
H   1.35202465  3.94125304  1.27597480
H   3.10900159  3.84399586  1.57465194
H   2.28306423  5.42733165  1.61272565
H   3.79991528  6.30576756 -0.03476735
H   4.65700040  4.73934090 -0.05334295
H   4.04153513  5.43855830 -1.57667765
H   0.52757530  4.87428094 -0.78506257
H   1.41970335  6.38072038 -0.43390517
H   1.67196066  5.53397149 -1.98590579
H   1.69538388  2.76109314 -0.78363464
H   2.79447827  3.41547672 -2.03269334
B   3.74509638 -4.08223611  0.01430049
F   2.88565107 -3.95807068 -1.09658840
F   4.78968817 -4.97806645 -0.30176731
F   4.29191276 -2.82239083  0.33552406
F   3.02221331 -4.57728982  1.11972320

