32
Total Energy                               R     -6.519767395541817E+02
C  -0.18935628 -0.86473028 -0.00617047
C  -2.53228141 -1.35284465 -0.01179665
C  -1.21904679 -1.79573179 -0.00605407
N  -4.15471029  0.44439331 -0.08455028
O   2.96090598  0.52225764 -0.13582300
C  -1.78962648  0.95096917 -0.01306380
C  -2.83734909  0.02025920 -0.01716425
C   0.95977698  2.10311799  1.32228967
C  -0.48540917  0.48959680 -0.00838007
C   1.28709320 -1.13848364  0.00479208
C   1.81117685 -1.88299153 -1.22340490
C   1.80163619 -1.75024761  1.31378055
N   1.81600128  0.27436945 -0.05430035
C   0.92068109  2.24572157 -1.21569003
C   0.75149276  1.34393699  0.00609469
H  -3.34463020 -2.07330695 -0.01379694
H   1.37177883 -2.88187099 -1.20784322
H   1.50990066 -1.38245988 -2.14536829
H  -1.00519313 -2.85971774 -0.00106806
H   1.47930191 -1.16709897  2.17781152
H   1.37472493 -2.75199031  1.38762499
H  -4.32920450  1.38137366  0.24917548
H   0.84757885  1.67341631 -2.14207446
H  -2.00475837  2.01530373 -0.01442425
H  -4.84210531 -0.21370797  0.25318444
H   0.15631735  2.83734146  1.40050747
H   0.90598293  1.43072956  2.18023188
H   2.89776713 -1.97978576 -1.18948121
H   2.89017737 -1.83189985  1.30425040
H   1.91686484  2.62776264  1.31933528
H   1.87363388  2.77601905 -1.17930920
H   0.11285098  2.97905830 -1.19161399

