32
Total Energy                               R     -6.521637428419569E+02
C  -0.77163061  1.33560070 -0.00006871
C  -1.78174973 -1.84806278 -1.25908970
C  -1.78763997 -1.83694653  1.25938028
N  -1.80942150  0.27613111 -0.00932403
O  -3.04500506  0.54641318 -0.01133710
C   1.78788900  0.94454426  0.00671925
C  -0.89763952  2.19671361 -1.25705560
C  -0.90954772  2.18622582  1.26297591
C   0.47810621  0.49121281  0.00317493
C   0.18017593 -0.86524210  0.00118705
C  -1.30564120 -1.11920136 -0.00206453
C   1.21206792 -1.79453333  0.00021936
N   4.16077755  0.44165766  0.07518368
C   2.53032382 -1.35617236  0.00439597
C   2.83513888  0.01460072  0.00884914
H  -1.86374821  2.70736928 -1.27135835
H  -2.87251152 -1.91787519 -1.27043248
H  -1.45347160 -1.32645037 -2.16185309
H  -1.87537097  2.69755075  1.27199100
H  -1.46378578 -1.30707711  2.15891816
H  -2.87843044 -1.90701223  1.26616266
H  -0.10914843  2.95364285 -1.27021203
H  -0.80893463  1.58719136 -2.16004373
H   4.32350134  1.37103380 -0.28623410
H  -0.12047931  2.94215806  1.29055883
H   2.00942005  2.00861244  0.00845508
H  -0.83026695  1.56896260  2.16154871
H  -1.37342265 -2.86204827 -1.27706016
H  -1.37887919 -2.85050726  1.28851953
H   0.99988644 -2.85983577 -0.00491156
H   3.34202100 -2.07827390  0.00480444
H   4.83505091 -0.21570453 -0.29091375

