64
Total Energy                               R     -1.766441683573097E+03
C  -0.16516981  0.41425242  0.44046098
C   0.40662662  1.66762637  1.10439209
C   0.49871708  0.19827576 -0.93297860
N   0.18434624 -0.73082845  1.33236315
O   1.31779956 -0.69193804  1.91001049
C  -0.41468644 -2.07998473  1.21613212
C   0.49974214 -2.96264246  0.34999558
C  -0.49015616 -2.65261964  2.64061662
C  -1.81319936 -1.99746355  0.63351924
C  -2.42542911 -0.76666859  0.26190997
C  -1.68000298  0.45899039  0.24481303
C  -2.35029521  1.62459225 -0.05894644
C  -1.76973055  3.00309280 -0.16520610
O  -1.95034233  3.87084157  0.65884624
O  -1.14122446  3.21074092 -1.32001852
C  -3.73196815  1.62307149 -0.34900395
C  -4.44099368  0.45941618 -0.42568248
C  -5.85057330  0.53953997 -0.89693605
O  -6.38172513 -0.24802567 -1.65163767
O  -6.48648883  1.61620374 -0.42694728
C  -3.80176344 -0.78160826 -0.12917996
C  -4.50238685 -2.00902167 -0.17709849
C  -3.86522459 -3.18090168  0.12269993
C  -2.52429781 -3.17046409  0.53040555
H   1.44585852  1.49496724  1.36850703
H  -0.14665868  1.93347156  2.00725078
H   0.40840893  2.50824987  0.41619862
H   1.57057699  0.03967181 -0.80279738
H   0.35118153  1.08493908 -1.55086847
H   0.07164035 -0.65861467 -1.45618337
H   1.51971877 -2.92791039  0.73506469
H   0.50158090 -2.64270597 -0.69176296
H   0.15914370 -3.99871098  0.38835249
H   0.50545120 -2.70520939  3.08160717
H  -0.90189371 -3.66168833  2.61650697
H  -1.12757578 -2.03272802  3.27562997
H  -0.81972352  4.12412495 -1.35921689
H  -4.21697020  2.56655302 -0.57041096
H  -7.37218850  1.65932233 -0.81497001
H  -5.54697322 -2.02101379 -0.45407787
H  -4.40201639 -4.12173498  0.07177853
H  -2.05913962 -4.11221740  0.79669089
N   4.43487634 -1.91328232 -1.25827646
C   4.73151667 -0.64231797 -1.97769498
C   4.12794714 -1.61398074  0.16947166
C   3.26216828 -2.57650208 -1.89532761
C   5.61729616 -2.81646357 -1.33212514
H   4.99248261 -1.12692311  0.61614408
H   3.86434780  0.01046927 -1.90395639
H   5.59526376 -0.17062998 -1.51450019
H   4.94285562 -0.87403452 -3.02037961
H   5.83755432 -3.01984399 -2.37866646
H   6.46447194 -2.32312905 -0.85888861
H   5.38269486 -3.74265021 -0.81022359
H   2.41478495 -1.89514162 -1.86010604
H   3.51421132 -2.80801572 -2.92900797
H   3.03551227 -3.49029666 -1.34916860
H   3.26311015 -0.95700235  0.21267292
H   3.91669306 -2.54973980  0.68399263
B   4.28445558  2.35047701  0.43710963
F   3.88079282  1.48937830  1.47711816
F   3.40648240  2.22249370 -0.65891341
F   4.26395059  3.68435470  0.89791607
F   5.59386197  2.01295889  0.03312204

