64
Total Energy                               R     -1.766563512020059E+03
C   0.94831974 -2.17182071 -0.07233684
C   1.69604840 -2.19494862 -1.41452141
C   0.68133213 -3.62876173  0.37363540
N   1.80712268 -1.37671518  0.84166105
O   3.10340865 -1.92372654  0.91806575
C   1.30229540 -1.11691451  2.20357570
C   1.40190038 -2.30037019  3.19380780
C   2.16808800  0.03390350  2.75556647
C  -0.14208122 -0.64629374  2.13508331
C  -0.91999710 -0.76401028  0.94710795
C  -0.40254083 -1.46219389 -0.19456350
C  -1.18704160 -1.50916641 -1.32977047
C  -0.87949949 -2.21353755 -2.61536258
O  -0.61708828 -1.64115615 -3.65089451
O  -1.05469154 -3.53267197 -2.54336137
C  -2.44328212 -0.86829525 -1.38491399
C  -2.98182319 -0.25616661 -0.28983142
C  -4.35474633  0.29722978 -0.41459734
O  -5.20984849  0.27412325  0.44777254
O  -4.58815687  0.81781191 -1.62526925
C  -2.23757508 -0.20512075  0.92755653
C  -2.74891359  0.41726548  2.08942255
C  -2.00278167  0.45666362  3.23484865
C  -0.70565182 -0.07423660  3.25347250
H   2.72039915 -2.51177001 -1.23350926
H   1.72106201 -1.20617169 -1.87744901
H   1.26978640 -2.90934932 -2.11589752
H   1.61254160 -4.09109444  0.71061385
H   0.29170065 -4.21674140 -0.45937793
H  -0.04805583 -3.68392789  1.18294165
H   2.40206257 -2.73545871  3.16048282
H   0.67454799 -3.08556091  2.99004310
H   1.22455167 -1.94549313  4.21245310
H   3.21490380 -0.27069721  2.77418523
H   1.88349018  0.30362068  3.77388473
H   2.07651625  0.92153574  2.12461105
H  -0.88783508 -3.93191757 -3.41028137
H  -3.00509190 -0.90626165 -2.31069837
H  -5.51166508  1.10197737 -1.67758315
H  -3.73392564  0.86091414  2.07357519
H  -2.40451957  0.92121166  4.12926818
H  -0.13512044 -0.00536948  4.17202773
N   3.82880252  1.59707198 -1.03088359
C   4.49338590  1.58083185  0.30216650
C   4.30689028  0.43461858 -1.83109267
C   2.34941524  1.50833573 -0.85008398
C   4.16390978  2.86253225 -1.74036912
H   5.38336607  0.52570433 -1.96894515
H   4.26521352  0.63594691  0.79165195
H   5.56815158  1.68064288  0.15770351
H   4.11499021  2.41379758  0.89235205
H   3.81750847  3.70190135 -1.13974330
H   5.24303889  2.91732290 -1.87513986
H   3.66450664  2.86378989 -2.70778467
H   2.11162796  0.59176794 -0.30300477
H   2.02283368  2.38219400 -0.29028262
H   1.88543968  1.50188358 -1.83436252
H   4.07304421 -0.47997816 -1.28938661
H   3.80288653  0.44176574 -2.79597463
B  -0.89980756  3.05942133 -0.20850316
F  -0.25292204  2.68972362  0.98834567
F  -0.69440402  2.07303411 -1.19128375
F  -2.28283791  3.21010599  0.02916661
F  -0.36686820  4.28734772 -0.66318468

