59
Total Energy                               R     -1.341910038118539E+03
C  -0.06847108 -1.64386184  0.10283813
C   0.16780259 -1.82986035 -1.41219618
C  -0.75152607 -2.90261432  0.68122624
N   1.30087099 -1.40745249  0.64951045
O   2.03217318 -2.60992871  0.65301105
C   1.37696729 -0.71408004  1.95361535
C   0.59308540 -1.37755534  3.10640579
C   2.84859267 -0.63319807  2.36696950
C   0.81033716  0.67166925  1.69179707
C  -0.35669000  0.77564106  0.87988370
C  -0.93199547 -0.38107494  0.26266841
C  -2.21577954 -0.27467809 -0.24890225
C  -2.99952916 -1.47844549 -0.70800670
O  -3.00832958 -1.93428435 -1.82860718
O  -3.70516854 -2.00307539  0.29406909
C  -2.86487359  0.99532462 -0.34392896
C  -4.22508212  1.11730235 -0.92961101
O  -4.95338134  0.18228736 -1.19229788
O  -4.59715617  2.38181095 -1.14805222
C  -2.22758203  2.12694354  0.09187440
C  -0.98505416  2.04066913  0.74620562
C  -0.39121247  3.19829774  1.30905969
C   0.75802406  3.08279718  2.03602923
C   1.33809741  1.81270780  2.24561118
H   0.87126316 -2.64863983 -1.57070042
H   0.59667981 -0.92084783 -1.84010308
H  -0.74860705 -2.06349575 -1.94994415
H   0.02441038 -3.62835359  0.92494102
H  -1.41376366 -3.37296616 -0.04791582
H  -1.33055119 -2.69745973  1.58091075
H   0.85759844 -2.43611628  3.18126369
H  -0.48743679 -1.30038474  2.97108129
H   0.84123105 -0.89756278  4.05755463
H   3.25025901 -1.63368380  2.51828595
H   2.95860964 -0.09424080  3.30989073
H   3.45241360 -0.12966747  1.60786121
H  -4.21293368 -2.76182130 -0.02939070
H  -5.49040894  2.38699954 -1.51859004
H  -2.69558271  3.09754760 -0.01423093
H  -0.87771481  4.15843669  1.17048815
H   1.21968214  3.95820721  2.48024379
H   2.22106406  1.75825127  2.86954994
N   3.87135156  0.54801236 -1.89606601
C   4.86235794 -0.08490551 -0.98062493
C   4.51845804  1.66684520 -2.63509051
C   3.37882212 -0.47240481 -2.86388955
C   2.72363310  1.06797593 -1.09660826
H   4.87075636  2.40317613 -1.91467515
H   5.69634698 -0.45744955 -1.57361974
H   5.21108177  0.66338823 -0.27111091
H   4.37786496 -0.90624987 -0.45529076
H   2.26310989  0.23126468 -0.56546619
H   3.10212343  1.80828403 -0.39295867
H   2.00929188  1.53089211 -1.77661621
H   4.22097500 -0.82625790 -3.45654336
H   2.93881790 -1.29724150 -2.30667552
H   2.63217081 -0.01206648 -3.50867588
H   5.35581869  1.27266139 -3.20872511
H   3.78447928  2.11602829 -3.30188816

