50
Total Energy                               R     -1.367079785296975E+03
C  -1.53764331 -0.36349738  1.30058966
C  -2.16382915 -1.57886241  1.99913926
C  -2.86527761 -2.57153208  1.08326580
C  -1.03612146  0.70234313  2.32077241
C   0.10336254  0.22299617  3.20665255
N  -2.58762767  0.36539832  0.49950962
O  -3.57457873  0.78209066  0.98545032
C  -2.26125335  0.53844782 -0.95159256
C  -3.23538709 -0.37326763 -1.76531125
C  -4.72035588 -0.07929135 -1.65364653
C  -2.38337384  2.01473785 -1.35370096
C  -1.44351039  2.96838701 -0.63160567
C  -0.88522650 -0.06367992 -0.99017950
C  -0.53765426 -0.65463038  0.21771802
C   0.63158734 -1.38222482  0.33294229
C   1.48051988 -1.46028697 -0.77033804
C   2.75151304 -2.21140691 -0.61293171
O   3.03636162 -2.86888278  0.36784061
O   3.56821571 -2.10245326 -1.66221055
C   1.14847726 -0.82740246 -1.97042214
C  -0.04984747 -0.13774928 -2.09217771
H  -2.84461696 -1.21055918  2.77085587
H  -1.33555868 -2.07141635  2.51316643
H  -3.76314434 -2.14454433  0.62791807
H  -3.17696150 -3.44176653  1.66453279
H  -2.20570742 -2.92136966  0.28493699
H  -1.89814848  0.98738480  2.92964966
H  -0.71097779  1.58494564  1.76622487
H  -0.16681916 -0.65287572  3.79930613
H   0.35674324  1.02779101  3.90090370
H   1.00283819 -0.00548237  2.63275885
H  -3.03243363 -1.41204466 -1.49917031
H  -2.89356389 -0.24144811 -2.79572654
H  -5.10274090 -0.23855983 -0.64219448
H  -5.25569651 -0.77063505 -2.30931458
H  -4.97332801  0.93560520 -1.96469623
H  -3.41984261  2.32882595 -1.21959973
H  -2.18531968  2.02452112 -2.42886142
H  -1.70048809  3.06866059  0.42631205
H  -1.52396233  3.96088194 -1.08023147
H  -0.40124785  2.64991605 -0.70435013
H   0.89603020 -1.87676129  1.25943531
H   4.37598557 -2.60832613 -1.49572567
H   1.82020006 -0.88234300 -2.81737093
H  -0.32435297  0.33084491 -3.03048846
B   3.27500655  1.56042120  0.25231172
F   4.05264716  2.60994231  0.78959801
F   3.56141121  0.36652216  0.94598900
F   1.90841269  1.87668848  0.39012298
F   3.58704088  1.39955165 -1.11349703

