62
Total Energy                               R     -1.156969680044385E+03
C   1.56773658  0.01021388  1.35461903
C   2.02402900  0.99345612  2.45310798
C   2.69907959  2.26351334  1.95092664
C   0.88181497 -1.21762387  2.00366506
C  -0.24262082 -0.94614130  3.00012312
N   2.72882392 -0.34637687  0.49139334
O   3.48314833 -1.45582395  0.92099100
C   2.37892314 -0.33455821 -0.95243087
C   3.41783087  0.52429199 -1.72322914
C   4.85920615  0.03105167 -1.67781736
C   2.24468748 -1.69930542 -1.66591167
C   1.17688298 -2.66518068 -1.16831119
C   1.07585753  0.42139312 -0.94549570
C   0.64735555  0.66633407  0.35364046
C  -0.48907652  1.42569803  0.57906993
C  -1.22239347  1.90231964 -0.51176522
C  -2.46886864  2.64997354 -0.24218924
O  -2.87021110  2.94682154  0.86797707
O  -3.15252637  2.97528851 -1.34632203
C  -0.80037270  1.63218770 -1.81741070
C   0.35690354  0.89781248 -2.03609568
H   2.70159216  0.45210260  3.12491819
H   1.15669541  1.27508634  3.05854445
H   3.60532925  2.04172958  1.38408069
H   2.97620024  2.90756279  2.79124010
H   2.03434014  2.84194029  1.30093350
H   1.65967070 -1.79817788  2.50524953
H   0.49777669 -1.85254486  1.20357446
H   0.11332409 -0.44284387  3.90232605
H  -0.68976158 -1.89370280  3.31687716
H  -1.04761693 -0.34003838  2.57691882
H   3.37763039  1.53607859 -1.30494224
H   3.09752654  0.60742171 -2.76916396
H   5.22792357 -0.02992410 -0.65123147
H   5.50977783  0.72135612 -2.22393075
H   4.97660005 -0.95533383 -2.13492348
H   3.21409195 -2.20301751 -1.63858115
H   2.05210572 -1.47431459 -2.72147289
H   1.43211633 -3.08351820 -0.19336033
H   1.07735935 -3.50209952 -1.86680469
H   0.19479767 -2.19210311 -1.08610094
H  -0.81706301  1.65820256  1.58553147
H  -3.95365379  3.45371426 -1.09265565
H  -1.37495350  1.99469155 -2.66091716
H   0.69123539  0.70265356 -3.04997903
N  -3.37780050 -1.69985162 -0.09544123
C  -2.61089898 -2.70069149  0.69883975
C  -3.70040861 -0.52578124  0.76484869
C  -2.54915767 -1.25396883 -1.25051084
C  -4.63994187 -2.31551419 -0.59132852
H  -4.30482447 -0.86476709  1.60446036
H  -1.69064861 -2.23545026  1.04439120
H  -3.21663480 -3.01372000  1.54742310
H  -2.38387318 -3.55368563  0.06173167
H  -4.38999604 -3.17238442 -1.21456428
H  -5.23365315 -2.63398035  0.26389225
H  -5.18579582 -1.57439750 -1.17268733
H  -1.62384296 -0.83426527 -0.86488331
H  -2.33854095 -2.11528611 -1.88242438
H  -3.10221684 -0.50080275 -1.80885782
H  -2.77016789 -0.09066334  1.12328553
H  -4.25270942  0.20090996  0.17120201

