39
Total Energy                               R     -9.387966491259638E+02
C   2.58092919 -0.02529223  0.06261924
C   0.92872611  1.71875175 -0.17626909
C   2.27620906  1.30365544 -0.09475572
N  -2.19432568 -1.11216670 -0.26051443
O   4.30055154 -1.65873792  0.32557666
C   0.23829460 -0.62624862 -0.02910004
C   3.98360855 -0.49471271  0.18618235
C   1.55270760 -0.99535151  0.06944534
C  -0.79989469 -1.70582091 -0.27585820
C  -1.45388331  1.18670023 -0.03419574
C  -0.10414938  0.75117850 -0.08110760
C   0.58756639  3.08498487 -0.33775003
C  -1.75173647  2.51359480 -0.21321706
C  -0.72421054  3.46639455 -0.38630845
O  -3.05940108 -1.72787449 -0.76737299
O   4.88062480  0.49162976  0.13347910
C  -3.94406414  0.57278260  0.05838763
C  -2.51907448  0.19872197  0.41520174
C  -2.39122250 -0.05806349  1.93285602
C  -0.60736685 -2.31204288 -1.67257467
C  -0.81941413 -2.81777317  0.79065124
H   5.77102526  0.12467585  0.22271123
H  -1.36676556 -0.25891902  2.24254419
H  -2.72059658  0.85968477  2.42216489
H   3.05642469  2.05335672 -0.15102148
H   1.38433939  3.81666984 -0.42096790
H  -4.20495809  1.48502151  0.59279838
H   0.38582987 -2.75838258 -1.70624936
H  -0.67246895 -1.54158957 -2.44300173
H  -1.34236095 -3.09262517 -1.86540948
H   1.83224006 -2.04118516  0.11139399
H   0.11575745 -3.37092819  0.70268667
H  -0.90045683 -2.42156901  1.80124397
H  -0.98898251  4.50879022 -0.52114850
H  -2.77739185  2.85887735 -0.18611130
H  -4.06271398  0.74190942 -1.01315041
H  -4.63649271 -0.20441827  0.38089613
H  -3.04145362 -0.87803079  2.24201265
H  -1.64304765 -3.50506489  0.59350509

