39
Total Energy                               R     -9.389878803357781E+02
C   2.62306666 -0.02910571 -0.01684686
C   0.96539213  1.72204555 -0.06523349
C   2.31467729  1.30615012 -0.05482766
N  -2.13542043 -1.16260566 -0.30164950
O   4.35306459 -1.67362576  0.04681230
C   1.59025844 -0.99304770 -0.00564372
C   4.02729231 -0.50325569  0.01224757
C  -0.81872632 -2.38196480  1.38138193
C   0.26839784 -0.63130907 -0.03843409
C  -1.42853495  1.19331540 -0.03519751
C  -0.07843443  0.74989404 -0.05438064
C   0.64822778  3.10179530 -0.06486887
C  -1.68971892  2.54389440 -0.01207188
C  -0.65757824  3.50242228 -0.03308861
O  -3.06236982 -2.02319025 -0.45836425
O   4.92564508  0.48574753 -0.00257382
C  -3.67941171  0.58265163 -0.97693614
C  -2.58815515  0.21463468  0.03556524
C  -3.17202454  0.21054308  1.45901880
C  -0.50466726 -2.77906119 -1.08356409
C  -0.78856472 -1.72251367 -0.00799314
H   3.09200243  2.06113068 -0.06697666
H  -2.39915453  0.02577761  2.20711621
H  -3.62236791  1.18325448  1.66811644
H   5.81690191  0.11109399  0.01657135
H   1.45697282  3.82533692 -0.07831216
H  -3.28153351  0.59072707 -1.99441070
H   1.87310561 -2.03742140  0.03556665
H  -0.47617344 -2.32584178 -2.07723350
H   0.45407433 -3.26177514 -0.89545515
H   0.12673088 -2.89861871  1.55923475
H  -1.62749758 -3.11406464  1.43203072
H  -0.95777834 -1.64323312  2.17236391
H  -0.91113414  4.55672279 -0.02036824
H  -2.71242758  2.89877039  0.03363958
H  -4.08405718  1.56969700 -0.75557703
H  -4.50237317 -0.12901327 -0.92482951
H  -3.94531862 -0.55580727  1.54741153
H  -1.27172489 -3.55247986 -1.06909662

