60
Total Energy                               R     -1.444473806806344E+03
C  -1.87874622  0.28387456 -1.46766628
C  -0.76065737  0.03478908 -2.48306143
C  -3.21000913  0.59886175 -2.21169401
N  -2.15062537 -1.04319032 -0.79555217
O  -1.91705210 -2.03795260 -1.38550299
C  -2.68289580 -1.11719677  0.60952169
C  -4.01064365 -0.34947413  0.68939325
C  -2.88748081 -2.57700919  0.96251660
C  -1.59407392 -0.39811436  1.39689919
C  -1.13099352  0.85224281  0.90362901
C  -1.43621956  1.29692170 -0.41548742
C  -1.12956861  2.60426282 -0.77631935
N  -1.37269983  3.14100376 -2.02553042
C  -0.42029164  3.43243062  0.14381229
C  -0.01080466  2.96880299  1.35224690
C  -0.35788377  1.66048027  1.77549041
C   0.04199210  1.15706357  3.03120808
C  -0.33027079 -0.10048559  3.43351811
C  -1.17042102 -0.87555637  2.61470802
H  -1.08484071 -0.65026161 -3.26629369
H   0.13035461 -0.35706931 -1.99356832
H  -0.51001686  0.98868907 -2.94447446
H  -3.72285690 -0.32035384 -2.49678273
H  -2.97023200  1.11369191 -3.14218973
H  -3.88111713  1.21397930 -1.61689564
H  -4.73750847 -0.75257058 -0.01781230
H  -3.89417203  0.72086678  0.53072330
H  -4.38672871 -0.49874937  1.70259893
H  -3.59899275 -3.03349060  0.27297227
H  -3.31254896 -2.63299842  1.96404857
H  -1.95741361 -3.14567356  0.94159722
H  -1.27048219  4.14371624 -2.07815334
H  -2.18695244  2.82278743 -2.52502431
H  -0.17295914  4.44271250 -0.16764279
H   0.57395900  3.60034584  2.01297999
H   0.65197864  1.78502951  3.67307476
H  -0.01428563 -0.48965920  4.39467839
H  -1.50888236 -1.83845606  2.97650214
N   2.00210627 -2.90075488 -0.38825654
C   1.19089761 -3.40931170 -1.53062381
C   1.13831455 -2.07647072  0.50434463
C   2.55101392 -4.05279319  0.38132703
C   3.12288139 -2.06527277 -0.90604446
H   0.77506817 -1.21901085 -0.05693434
H   0.36683799 -4.00248842 -1.13817668
H   0.81151105 -2.56141502 -2.09691704
H   1.82890671 -4.02465227 -2.16302981
H   3.74443919 -2.68053690 -1.55465434
H   2.70405037 -1.23083032 -1.46373689
H   3.70426906 -1.70156365 -0.06175491
H   1.72119780 -4.64815321  0.75850397
H   3.17311365 -4.65168080 -0.28164967
H   3.14438005 -3.66858366  1.20920969
H   0.30785729 -2.69212632  0.84195856
H   1.72877957 -1.74218759  1.35504103
B   3.15908406  1.52221522 -0.19547662
F   2.08790601  1.23308899 -1.06433215
F   4.36725029  1.08585336 -0.78211846
F   3.22392017  2.91398053  0.02611823
F   2.96847700  0.85769441  1.03280711

