60
Total Energy                               R     -1.444468914241882E+03
C  -0.61270660  0.61240180 -1.04640666
C  -0.01851595 -0.07613300 -2.27875750
C  -2.06238167  1.08008062 -1.34753243
N  -0.79373643 -0.47215896 -0.00528335
O  -0.99286642 -1.57557116 -0.36968085
C  -0.69903470 -0.18045833  1.46676026
C  -1.76665169  0.86120388  1.83452738
C  -0.92418549 -1.47609746  2.22063197
C   0.70117729  0.40497834  1.59430266
C   1.09702879  1.40875311  0.66857910
C   0.35119634  1.66971851 -0.51766890
C   0.67276694  2.78264350 -1.28743572
N   0.02329421  3.13316739 -2.45583657
C   1.80967042  3.56875032 -0.93362297
C   2.60222520  3.24494175  0.12039810
C   2.26900584  2.15253649  0.96122781
C   3.06725882  1.80139314  2.07099720
C   2.71019695  0.76041561  2.88918951
C   1.50769310  0.06992611  2.65609409
H  -0.72066413 -0.78812620 -2.71187793
H   0.91226898 -0.58415307 -2.02458050
H   0.19183853  0.69156551 -3.02209939
H  -2.75472592  0.24268860 -1.27130654
H  -2.10905722  1.41363799 -2.38357496
H  -2.38759088  1.88211886 -0.68903788
H  -2.76224325  0.50674950  1.56625617
H  -1.58512527  1.83370662  1.38021635
H  -1.71279838  0.98166663  2.91763366
H  -1.90511519 -1.88628911  1.98038747
H  -0.90513427 -1.26076109  3.28843183
H  -0.15795991 -2.21991050  1.99616203
H   0.23676186  4.06166387 -2.78973526
H  -0.96142273  2.93453212 -2.52169433
H   2.05285563  4.42248326 -1.55884749
H   3.48858642  3.83075206  0.34163091
H   3.96872296  2.37405403  2.26581275
H   3.32713186  0.48674194  3.73749400
H   1.21022705 -0.70706721  3.34874406
N   3.69884133 -2.39621245 -0.83271027
C   3.35014448 -2.14882165 -2.26041785
C   5.07465558 -1.89059317 -0.56225861
C   2.73006798 -1.68320489  0.04790171
C   3.63977504 -3.85892727 -0.55175657
H   5.77502341 -2.42048809 -1.20559356
H   3.38805399 -1.07720316 -2.44882819
H   4.07184155 -2.66706329 -2.88979040
H   2.34761721 -2.53005075 -2.44617957
H   2.62764677 -4.21015182 -0.74474245
H   4.34661070 -4.36942801 -1.20379654
H   3.90266039 -4.02404039  0.49165455
H   2.79027763 -0.61775161 -0.16491646
H   1.73029916 -2.05988974 -0.16054181
H   2.99750909 -1.87736068  1.08470836
H   5.10185083 -0.82330136 -0.77485730
H   5.31396612 -2.07126881  0.48426195
B  -5.05996571 -0.81301851 -0.05617067
F  -5.16409354 -0.75595968 -1.46162192
F  -3.85712336 -1.46327101  0.29595140
F  -5.05637694  0.49615863  0.46749442
F  -6.15265802 -1.52948467  0.47097638

