60
Total Energy                               R     -1.444657859132755E+03
C  -0.99796315 -1.60954488 -1.26694583
C   0.10412473 -1.08583212 -2.20192263
C  -1.80841151 -2.72846469 -1.96940119
N  -0.29108324 -2.22955679 -0.10985032
O   0.59624354 -3.09727530 -0.39111647
C  -0.86759211 -2.21295839  1.25793743
C  -2.17372882 -3.03215244  1.26443961
C   0.11980052 -2.85336969  2.22512508
C  -1.17636513 -0.76295681  1.58031377
C  -1.75765356  0.03951978  0.55309550
C  -1.83907284 -0.41682485 -0.79855148
C  -2.57974046  0.33046488 -1.70904922
N  -2.73239210 -0.00139059 -3.05366631
C  -3.15526107  1.56873419 -1.30822458
C  -2.99054497  2.05763830 -0.05089738
C  -2.29269608  1.30340416  0.92202646
C  -2.13671889  1.78648174  2.24281435
C  -1.49283554  1.03290919  3.18461871
C  -1.03367958 -0.25830356  2.84966928
H   0.69701300 -1.91138977 -2.59759054
H   0.76012823 -0.39739487 -1.66629947
H  -0.34096397 -0.55442287 -3.04232629
H  -1.35513303 -3.69749360 -1.75674037
H  -1.78203100 -2.61601810 -3.05544352
H  -2.84872611 -2.75533228 -1.64246900
H  -1.98353993 -4.04868789  0.91015508
H  -2.94687763 -2.58104760  0.64092883
H  -2.55443265 -3.08486478  2.28689894
H   0.34839467 -3.87281705  1.91729107
H  -0.32904648 -2.90543822  3.21735785
H   1.05097863 -2.29009225  2.29772984
H  -3.50309554  0.47538035 -3.49981970
H  -2.74631414 -0.98351785 -3.27465328
H  -3.70766566  2.14047162 -2.04834229
H  -3.40344254  3.02353532  0.22280800
H  -2.53823714  2.76484860  2.48952016
H  -1.36033610  1.40301914  4.19561129
H  -0.58899802 -0.86267689  3.63091456
N   3.89171758 -0.50143266 -0.18239387
C   3.81020931 -1.60596047 -1.17979241
C   2.84512323 -0.70013029  0.85989753
C   5.23678351 -0.51046196  0.45861348
C   3.67810220  0.80677867 -0.86389767
H   1.86683905 -0.67201882  0.38507789
H   3.95720724 -2.55354586 -0.66442483
H   2.82929693 -1.58189325 -1.64820932
H   4.58816646 -1.45966066 -1.92708009
H   4.44437221  0.92945931 -1.62784226
H   2.68992070  0.80801833 -1.31756620
H   3.75443847  1.59995427 -0.12375938
H   5.37990398 -1.46654266  0.95917874
H   5.99251910 -0.37338116 -0.31295046
H   5.28490000  0.30290686  1.18074250
H   3.01254357 -1.66794952  1.32837858
H   2.92870706  0.09512882  1.59752177
B   0.84208433  3.06504568 -0.16526085
F   0.34964110  2.36463395 -1.28440958
F   2.04319156  3.72043926 -0.51682676
F  -0.10793563  4.02421839  0.24727144
F   1.09223255  2.16618320  0.88983139

