34
Total Energy                               R     -7.111347604432206E+02
C  -1.58553505 -1.17567327  0.00267982
C  -2.07150938 -1.94425526 -1.22617436
C  -2.07404663 -1.80920952  1.31079955
N  -2.17805783  0.21185335 -0.05771450
O  -3.33301543  0.40692364 -0.13871439
C  -1.16447548  1.32921790  0.00507445
C  -1.36991798  2.22406717 -1.21608432
C  -1.41035924  2.07516390  1.32250499
C   0.11000728  0.53267952 -0.00642250
C  -0.12205528 -0.83711590 -0.00484102
C   0.94348601 -1.71937074 -0.00535552
C   2.24389559 -1.22261975 -0.00663055
O   3.69424359  0.72586133 -0.00913993
C   4.83438814 -0.12182473 -0.00544045
C   2.46915459  0.15854200 -0.00780661
C   1.38984702  1.04830274 -0.00806110
H  -3.15254179 -2.08999732 -1.19414649
H  -1.58729359 -2.92209180 -1.20778047
H  -1.79126861 -1.43131603 -2.14792326
H  -3.15764046 -1.94029903  1.29677121
H  -1.78140236 -1.21163768  2.17556078
H  -1.60164666 -2.79016251  1.38635816
H  -2.34536812  2.71149972 -1.18163178
H  -1.26896255  1.65687652 -2.14295945
H  -0.59541978  2.99243187 -1.18827506
H  -2.39134975  2.55355427  1.31746652
H  -0.64202513  2.84594591  1.40308752
H  -1.32695618  1.40429867  2.17923957
H   0.77678946 -2.79145284 -0.00475404
H   4.86262591 -0.75181867 -0.89943064
H   4.85911328 -0.74851669  0.89099241
H   5.69710973  0.54194743 -0.00497243
H   3.07234067 -1.91938170 -0.00739989
H   1.57319798  2.11744232 -0.00882098

