52
Total Energy                               R     -1.197818825726960E+03
C  -0.09299905  1.38995705 -0.16909122
C  -0.03035190  2.07265808 -1.53501819
C  -1.22662780  2.01328194  0.65553873
N  -0.37547313 -0.06105326 -0.38913598
O  -1.32966222 -0.33416281 -1.19265271
C   0.03463122 -1.15399334  0.54403119
C  -1.06234307 -1.36426291  1.59557705
C   0.20251232 -2.43652991 -0.27053197
C   1.37604702 -0.80999864  1.20036483
C   1.46824275  0.61993695  1.70315224
O   2.72666776  0.85844151  2.33175922
C   1.25954541  1.56214493  0.53050978
H  -0.99994222  2.06856541 -2.03497468
H   0.70338096  1.58770356 -2.18391172
H   0.27453187  3.11264895 -1.39432217
H  -2.18513413  1.88565737  0.14940106
H  -1.04104254  3.08537781  0.75974222
H  -1.30114897  1.58537211  1.65642133
H  -2.01455131 -1.59772336  1.11436229
H  -1.19988099 -0.49307315  2.23794944
H  -0.78923313 -2.21145351  2.22985850
H  -0.74785188 -2.78711156 -0.67569389
H   0.60167758 -3.21679149  0.38228934
H   0.90522041 -2.29034579 -1.09471426
H   2.18066100 -0.96508074  0.47444114
H   1.53994796 -1.51282647  2.02156695
H   0.72547661  0.80331657  2.48291268
H   3.42410714  0.74489351  1.66997000
H   2.06262693  1.38520869 -0.19273843
H   1.33901882  2.60163366  0.85956226
N  -5.08102065 -0.16043051 -0.26209330
C  -4.48912076  0.20249514  1.05654742
C  -4.67200166 -1.54773904 -0.62433806
C  -6.56665796 -0.08618373 -0.17606327
C  -4.59294388  0.78703261 -1.30514682
H  -3.58610968 -1.58612202 -0.69032137
H  -4.85465730 -0.49560070  1.80778201
H  -3.40724241  0.14000476  0.98072048
H  -4.78968814  1.21850366  1.30718351
H  -4.86936878  1.79923828 -1.01494484
H  -3.51089364  0.69443679 -1.38144271
H  -5.05989942  0.52858558 -2.25426417
H  -6.90683953 -0.77966570  0.59102684
H  -6.85156522  0.93171857  0.08469904
H  -6.98740263 -0.35821868 -1.14246739
H  -5.02901277 -2.22900619  0.14619936
H  -5.11613093 -1.80156306 -1.58560739
B   4.75189887 -0.29978003 -0.71742930
F   4.72858747  0.67326519  0.32177369
F   5.96091087 -0.17925959 -1.42464814
F   4.65507362 -1.58150080 -0.14720229
F   3.66690229 -0.07761821 -1.58447618

