52
Total Energy                               R     -1.197921865256618E+03
C  -1.95404013 -1.45910410 -0.94572627
C  -1.00971362 -2.46832561 -1.60988711
C  -3.37444757 -1.93357877 -1.30549294
N  -1.71125561 -1.48275350  0.53458024
O  -0.31039093 -1.31763008  0.74716233
C  -2.42277869 -0.39627429  1.28603853
C  -3.93537409 -0.66503877  1.39360747
C  -1.90723357 -0.38276740  2.73006741
C  -2.17149981  0.99414835  0.66479514
C  -2.45744363  1.04133908 -0.82837124
O  -2.14509725  2.33223427 -1.37184047
C  -1.69135649 -0.06109847 -1.54681681
H  -1.16308347 -3.47161751 -1.19714015
H   0.03801448 -2.20362436 -1.48067523
H  -1.21784454 -2.51404243 -2.68318818
H  -3.65653046 -2.80561762 -0.70916237
H  -3.39551893 -2.23135150 -2.35765636
H  -4.14763327 -1.17832039 -1.18543279
H  -4.12940595 -1.71918009  1.60978234
H  -4.50714012 -0.39120024  0.50972493
H  -4.34480448 -0.07711404  2.21996444
H  -2.06519020 -1.35652170  3.20691723
H  -2.45812314  0.36467446  3.30889403
H  -0.84676178 -0.14212547  2.78874281
H  -1.12105426  1.26580674  0.81824212
H  -2.77863906  1.74388366  1.18451675
H  -3.52923710  0.93185204 -1.01159924
H  -1.26622324  2.59518654 -1.06586444
H  -0.62165310  0.16510794 -1.47613094
H  -1.95476774 -0.06326287 -2.61054927
N   3.36217035 -1.62859465  0.07823557
C   3.02663872 -1.14597059 -1.29153372
C   4.83863077 -1.77963464  0.20138227
C   2.87330054 -0.64247161  1.08649266
C   2.70621709 -2.94663830  0.31351279
H   5.18100590 -2.49531868 -0.54422320
H   3.53405940 -0.19844690 -1.46101425
H   3.36381143 -1.88768297 -2.01397838
H   1.94935460 -1.01217930 -1.36056261
H   1.62818085 -2.81723114  0.22885046
H   3.06814662 -3.65374732 -0.43122890
H   2.96479495 -3.29105649  1.31348793
H   3.35990909  0.31256770  0.89898435
H   1.79172461 -0.55179268  0.98823934
H   3.13475235 -1.00737633  2.07880334
H   5.30506044 -0.81033820  0.03306842
H   5.07145322 -2.13964902  1.20213421
B   1.36786256  2.80624786 -0.02069817
F   0.21241091  3.57119345 -0.34331344
F   2.50715624  3.62620649 -0.13230473
F   1.25292979  2.33145799  1.29737266
F   1.46485141  1.73153907 -0.91943785

