37
Total Energy                               R     -1.096745727264962E+03
C  -1.41676250 -0.64989786 -1.27934761
C  -0.82540335 -1.35283761 -2.49207380
C  -2.95483211 -0.66831205 -1.36293856
N  -1.05010732 -1.46128644 -0.04635457
O  -0.81767674 -2.60725426 -0.18350862
C  -1.04826531 -0.89088355  1.36392364
C  -2.50370990 -0.97897671  1.86036185
C  -0.15874173 -1.77865561  2.22190829
C  -0.52038586  0.54692409  1.33094085
C  -1.12192981  1.40366211  0.22795770
C  -0.54540271  2.79896957  0.25864916
O   0.35707010  3.17179283  0.97510893
O  -1.15107164  3.60874744 -0.61451431
C  -0.85147813  0.76679822 -1.13836369
H  -1.30522112 -2.31344321 -2.67977368
H   0.25003602 -1.49619315 -2.38270616
H  -1.00345196 -0.70795849 -3.35416607
H  -3.33852515 -1.68577409 -1.27298715
H  -3.20922413 -0.28807677 -2.35367157
H  -3.43299060 -0.03239066 -0.62184742
H  -2.91310400 -1.97737093  1.69711489
H  -3.15830478 -0.23787939  1.40756304
H  -2.46897746 -0.79086014  2.93473757
H  -0.58936690 -2.76974209  2.36494624
H  -0.07479916 -1.29798854  3.19798570
H   0.83990942 -1.87120918  1.79446252
H   0.56440474  0.51834163  1.22241171
H  -0.73635964  0.97114248  2.31353576
H  -2.20018720  1.52284655  0.37052923
H  -0.74403066  4.48610820 -0.58356244
H   0.22538130  0.73648909 -1.31604505
H  -1.30529586  1.35194542 -1.93934250
B   2.84591973 -0.30134089 -0.19094058
F   1.76110187 -1.17887188 -0.42770695
F   4.01069634 -0.83682699 -0.77236306
F   2.56331741  0.95514148 -0.76282501
F   3.03112375 -0.15603250  1.19814006

