50
Total Energy                               R     -1.084291490807536E+03
C   2.22354528 -0.65260323  1.38123117
C   1.13242210 -1.04819549  2.37014498
C   3.35571160 -1.67083337  1.40335043
C   2.71921353  0.77056469  1.68051197
N   1.55089978 -0.56990945 -0.00364644
O   0.38206864 -0.43742304 -0.00001603
C   2.22500240 -0.62429854 -1.38776645
C   2.58685624 -2.09585961 -1.63840801
C   1.18167519 -0.16876138 -2.39975976
C   3.44602619  0.28850601 -1.42813956
H   1.61055548 -1.16313344  3.34382657
H   0.67517024 -2.00180787  2.09796093
H   0.35601288 -0.28908948  2.45961530
H   3.73686674 -1.67994184  2.42621295
H   4.18715834 -1.41148298  0.75176699
H   2.99791869 -2.67406086  1.16900462
H   3.02368727  0.77394173  2.72900117
H   1.92127468  1.50204263  1.55026952
H   3.57823156  1.05386791  1.07663719
H   1.74183984 -2.75537522 -1.43109318
H   3.45537582 -2.42353685 -1.07346166
H   2.82415991 -2.17461102 -2.70107283
H   0.33614302 -0.85538550 -2.45671076
H   1.67062699 -0.15091634 -3.37472922
H   0.81668548  0.83440161 -2.17731802
H   4.24483490 -0.02493395 -0.75939790
H   3.17548759  1.32452331 -1.22081141
H   3.83400223  0.23625314 -2.44716366
N  -3.26967074 -1.35793877 -0.00479674
C  -2.47853716 -1.10107653  1.23317634
C  -3.91103911 -2.69928426  0.08700156
C  -4.31968834 -0.30976421 -0.14714327
C  -2.36883279 -1.31682106 -1.19319368
H  -3.13100083 -3.45185191  0.18991062
H  -3.15132471 -1.14356574  2.08840139
H  -1.71182422 -1.86867288  1.32150744
H  -2.02418573 -0.11554860  1.16067479
H  -1.92892356 -0.32464044 -1.25946727
H  -1.59526458 -2.07256560 -1.06996701
H  -2.96078193 -1.52773724 -2.08239319
H  -4.97436560 -0.34932437  0.72165481
H  -3.83402420  0.66238275 -0.20923105
H  -4.88793401 -0.50522520 -1.05514289
H  -4.56653672 -2.71572340  0.95607260
H  -4.48563184 -2.87597654 -0.82065028
B  -0.74887696  2.65666247  0.00958159
F  -1.13373367  4.01136163  0.07242357
F   0.61452681  2.57148937 -0.34166918
F  -0.94974441  2.05274210  1.26835370
F  -1.52761897  1.99210305 -0.96117678

