60
Total Energy                               R     -1.444775223972315E+03
C  -0.08720417  2.09978871 -1.23333977
C  -1.16684446  1.80010127 -2.28152362
C   0.53314361  3.47552176 -1.57141710
N  -0.74334847  2.00235671  0.09227622
O  -1.84058221  2.88848219  0.17839372
C   0.11492324  2.14716647  1.29188292
C   0.54027379  3.59186702  1.64124260
C  -0.71822036  1.60609281  2.47191640
C   1.36048268  1.27719593  1.14936389
C   1.71815988  0.70132346 -0.10273934
C   1.00762363  1.04363836 -1.29033242
C   1.39012499  0.44922462 -2.46631232
C   2.42620330 -0.50343012 -2.52497242
C   3.13194038 -0.85395721 -1.40081892
N   4.19649118 -1.76322269 -1.46969966
C   2.81122301 -0.21651209 -0.15984199
C   3.56308594 -0.47398029  1.01111522
C   3.24395040  0.14798896  2.18881760
C   2.13668177  1.01168357  2.25562957
H  -1.96650637  2.53707753 -2.21853371
H  -1.59748578  0.80800331 -2.12308951
H  -0.76436822  1.84256787 -3.29488309
H  -0.15855959  4.28352212 -1.31689409
H   0.74426995  3.53610621 -2.64322126
H   1.47483452  3.64362861 -1.04675568
H  -0.33099454  4.24607329  1.70581781
H   1.23627043  4.01413460  0.91732559
H   1.03544126  3.60292558  2.61601530
H  -1.67550364  2.12667845  2.51934326
H  -0.21036838  1.75665924  3.42657512
H  -0.90910047  0.53723100  2.35323983
H   0.88700323  0.69295562 -3.39443904
H   2.66449424 -0.97323859 -3.47534646
H   4.19694062 -2.28247830 -2.33765317
H   4.23484277 -2.41088043 -0.69378364
H   4.41171227 -1.14765164  0.98053449
H   3.83453344 -0.03547209  3.08063709
H   1.89276896  1.46088027  3.21201983
N  -3.97880356 -0.86209895 -0.15023598
C  -4.56521393  0.34436252 -0.79910873
C  -2.92596168 -0.43873108  0.81807356
C  -5.04872695 -1.60750701  0.56886669
C  -3.37496351 -1.74420308 -1.18819867
H  -2.16033572  0.13967201  0.29710666
H  -4.99215540  0.98200058 -0.02706336
H  -3.77708357  0.87589910 -1.32834876
H  -5.33984611  0.02575365 -1.49510262
H  -4.15111734 -2.03113264 -1.89591299
H  -2.58458868 -1.19734104 -1.69711035
H  -2.96576985 -2.62668979 -0.70088705
H  -5.49346827 -0.94934784  1.31338682
H  -5.80221285 -1.92366430 -0.15064743
H  -4.60546366 -2.47526023  1.05412143
H  -3.39504952  0.17744875  1.58362409
H  -2.49474346 -1.33050789  1.27000666
B   0.26022169 -2.91728744  0.54775426
F   1.53157639 -3.50438585  0.36768057
F  -0.68873126 -3.92938719  0.82102903
F   0.30596942 -2.02100094  1.63282604
F  -0.11318171 -2.23545116 -0.62511407

