60
Total Energy                               R     -1.444663729454656E+03
C  -0.11905306 -1.92240706 -1.45019276
C   0.85283610 -1.06541703 -2.27570453
C  -0.46709832 -3.19768969 -2.23471200
N   0.59690392 -2.30421507 -0.20411116
O   1.72257290 -2.88007207 -0.36033724
C  -0.08663687 -2.44736267  1.11112697
C  -0.94549052 -3.72773379  1.09019076
C   0.97532561 -2.57783326  2.19995356
C  -0.99574827 -1.24626102  1.32092457
C  -1.67208839 -0.68716184  0.19640347
C  -1.35316076 -1.09373223 -1.12660631
C  -2.12325522 -0.61563319 -2.15992504
C  -3.16160450  0.30414709 -1.95296343
C  -3.43693878  0.79091768 -0.69433231
N  -4.46352254  1.71515856 -0.49563894
C  -2.70071693  0.27612771  0.41769101
C  -2.97509895  0.69947616  1.74255214
C  -2.26650142  0.19413958  2.79634295
C  -1.28192596 -0.79159476  2.58348728
H   1.75071106 -1.63171037 -2.52620270
H   1.13695835 -0.16530115 -1.72626055
H   0.37430478 -0.76082456 -3.20736218
H   0.43426437 -3.79049439 -2.40395443
H  -0.88051597 -2.92962875 -3.20877412
H  -1.20053686 -3.81144559 -1.71071781
H  -0.33100074 -4.58936857  0.81612103
H  -1.77709050 -3.64834265  0.38823170
H  -1.36015785 -3.89669949  2.08643275
H   1.64961893 -3.40329443  1.97853275
H   0.49696062 -2.79732948  3.15426435
H   1.55855720 -1.66196872  2.30986732
H  -1.90928825 -0.91435512 -3.18089315
H  -3.72528002  0.67237368 -2.80500718
H  -4.75462193  2.16582048 -1.35236888
H  -4.27287072  2.41264508  0.21034187
H  -3.75938304  1.42250613  1.93399666
H  -2.47752341  0.52688219  3.80697915
H  -0.77875972 -1.20742057  3.44730885
N   3.97249919  0.80839531  0.01469860
C   4.35294727 -0.02787680 -1.15837785
C   3.05295518  0.03666723  0.89827919
C   5.19834338  1.17833306  0.77579684
C   3.28501043  2.04477107 -0.45456496
H   2.14555817 -0.19162303  0.34383562
H   4.84227520 -0.93142790 -0.79910864
H   3.45366991 -0.28323475 -1.71359061
H   5.03362503  0.54312853 -1.78765912
H   3.96475162  2.59745427 -1.10116144
H   2.39019604  1.75894776 -1.00331100
H   3.01952548  2.64439853  0.41300803
H   5.68786649  0.26712463  1.11565205
H   5.86163950  1.73843170  0.11874519
H   4.90949525  1.78941939  1.62908741
H   3.55358933 -0.88170338  1.19997795
H   2.81742530  0.64317105  1.77093412
B  -0.17618760  2.99849740 -0.00607312
F  -0.17975893  2.25595846 -1.20423612
F   0.74070893  4.06729744 -0.12160840
F  -1.46566497  3.51821876  0.23292187
F   0.20611799  2.16778422  1.06617395

