58
Total Energy                               R     -1.389129565565697E+03
C   0.77268377 -1.03951155  1.68477464
C  -0.43082005 -0.74015955  2.55944221
C   1.67385446 -2.09999265  2.35869652
N   0.27939732 -1.66908344  0.40289993
O  -0.83828647 -2.03358323  0.33544565
C   1.17964573 -1.93121160 -0.78644449
C   1.54329957 -3.42941103 -0.69113239
C   0.33423089 -1.67911217 -2.04253095
C   2.38395314 -1.00633128 -0.75526403
C   2.47901819  0.06302157  0.17353628
C   1.60953768  0.16740187  1.29276519
C   1.64874225  1.27722916  2.09465279
C   2.58851616  2.30400018  1.85571239
C   3.49516151  2.18828654  0.83991812
C   3.46811071  1.06375250 -0.02346067
C   4.40220620  0.91825559 -1.07694170
C   4.34497093 -0.16911724 -1.90577198
C   3.31800494 -1.12260622 -1.75622614
H  -1.00300266 -1.64620744  2.75949515
H  -1.07894263  0.01072100  2.10769380
H  -0.07269680 -0.36807803  3.51820777
H   1.13983846 -3.04233303  2.49624677
H   1.92907600 -1.69474626  3.33924151
H   2.60053172 -2.27123339  1.81333243
H   0.63689794 -4.03672796 -0.66097024
H   2.16865242 -3.65537148  0.17012300
H   2.09350439 -3.68605747 -1.59640885
H  -0.54100813 -2.32787234 -2.06818352
H   0.95249330 -1.91090463 -2.90898012
H   0.02430256 -0.63620930 -2.09905935
H   0.98136391  1.37466685  2.94153966
H   2.59958548  3.17103134  2.50710856
H   4.24577670  2.95514011  0.67619557
H   5.16142874  1.68196109 -1.21398634
H   5.06608915 -0.28930511 -2.70686201
H   3.25572500 -1.93272025 -2.47466597
N  -4.66381738 -0.18873781 -0.11032110
C  -4.13807549 -1.01614466  1.01235862
C  -3.87117213 -0.46766018 -1.34308098
C  -6.09554525 -0.52301752 -0.35247109
C  -4.54265549  1.25439051  0.24474747
H  -2.83116419 -0.21396470 -1.15095475
H  -4.20843970 -2.06706131  0.73681584
H  -3.10155227 -0.73747152  1.18756216
H  -4.73377666 -0.81797540  1.90186491
H  -5.12935833  1.44134080  1.14276654
H  -3.49447208  1.48171456  0.42522267
H  -4.92022611  1.85090041 -0.58379737
H  -6.17089654 -1.57997297 -0.60255949
H  -6.66246920 -0.30864570  0.55207140
H  -6.46009680  0.08579680 -1.17818660
H  -3.96925017 -1.52436691 -1.58709485
H  -4.26287701  0.14387933 -2.15414744
B  -0.82021253  2.09725009 -0.74003838
F  -0.93569534  2.93135815  0.38836300
F  -1.84377841  2.40119705 -1.66105699
F   0.43184344  2.28420383 -1.35096181
F  -0.95223058  0.74600358 -0.33420363

