58
Total Energy                               R     -1.389414599257874E+03
C   0.25822764 -1.12273715  1.60848336
C  -0.66279626 -0.21187669  2.43511031
C   0.57519374 -2.37221569  2.46210254
N  -0.47748853 -1.40254784  0.35327011
O  -1.67430674 -2.07153992  0.63417841
C   0.25336017 -2.10335509 -0.72786526
C   0.51458761 -3.60365538 -0.46301595
C  -0.64826437 -1.99890544 -1.96958564
C   1.58163503 -1.40724762 -0.99073914
C   2.17921806 -0.58889109  0.01226376
C   1.56150677 -0.40541801  1.28503075
C   2.19877368  0.37262284  2.22420888
C   3.43146460  1.00523065  1.95604768
C   4.03688888  0.84851056  0.74072434
C   3.43187323  0.04082406 -0.25474463
C   4.06609179 -0.16105115 -1.50564539
C   3.48795953 -0.97027448 -2.44439773
C   2.24901122 -1.59104446 -2.18097309
H  -1.58823585 -0.74562560  2.64609342
H  -0.90469947  0.69888789  1.88143291
H  -0.21218933  0.07030235  3.38877625
H  -0.30060135 -3.02585165  2.46060603
H   0.79877669 -2.08487540  3.49442429
H   1.43461209 -2.93002581  2.08619955
H  -0.38917917 -4.04233052 -0.03372306
H   1.34877822 -3.77110554  0.21981536
H   0.74842637 -4.12196770 -1.39827548
H  -1.60134593 -2.48047076 -1.75462514
H  -0.20890573 -2.49184794 -2.83922643
H  -0.83820980 -0.95211734 -2.22414190
H   1.75948890  0.51302514  3.20487996
H   3.89269600  1.61802980  2.72461771
H   4.98590077  1.33007648  0.52260459
H   5.01670558  0.32803346 -1.69856570
H   3.97498748 -1.13784027 -3.40028932
H   1.82563865 -2.22823400 -2.94904448
N  -4.14709424  0.04335310 -0.24193071
C  -4.21512446 -1.23754184 -1.00256842
C  -2.85482820  0.72374650 -0.55626895
C  -5.28619357  0.92307200 -0.60793546
C  -4.18153061 -0.27099229  1.21561825
H  -2.03703885  0.05913594 -0.27010219
H  -4.15502431 -1.01399159 -2.06740004
H  -3.36381810 -1.83941798 -0.67114867
H  -5.16314437 -1.72541578 -0.77630378
H  -5.13080367 -0.75574390  1.44364493
H  -3.33455167 -0.93582329  1.40767785
H  -4.09243092  0.65984633  1.77522820
H  -5.23532826  1.13959668 -1.67433519
H  -6.21824350  0.40992916 -0.37480145
H  -5.21448910  1.84739416 -0.03605661
H  -2.83012960  0.93462891 -1.62480814
H  -2.81149744  1.65573857  0.00456033
B   0.09228487  3.30908012 -0.40721480
F   1.42639429  3.28245289  0.04545851
F  -0.14646307  4.52628886 -1.08768594
F  -0.13337461  2.23436827 -1.28818953
F  -0.78137460  3.21761672  0.69713430

