46
Total Energy                               R     -3.271627422850959E+03
C  -0.97786846 -1.47165492 -1.25454072
C  -0.05923540 -1.81368052 -2.43263557
C  -2.29527984 -2.22289840 -1.51940387
N  -0.29665436 -1.91536369  0.00015197
O   0.99708093 -1.34517726  0.00313590
C  -0.98246127 -1.47319424  1.25288695
C  -2.30280502 -2.22178458  1.51083331
C  -0.07013419 -1.82035529  2.43436077
C  -1.21615141  0.05875749  1.25562147
C  -1.93893342  0.50335010 -0.00027439
Br  -2.12471123  2.49372370  0.00021909
C  -1.21588885  0.05983036 -1.25637322
H   0.09971318 -2.89697919 -2.48676526
H   0.91133012 -1.33404772 -2.32648557
H  -0.51965863 -1.49454000 -3.37361150
H  -2.18492473 -3.28582079 -1.28588689
H  -2.54922344 -2.14154516 -2.58072906
H  -3.15304426 -1.84366517 -0.96715017
H  -2.19427595 -3.28434239  1.27483826
H  -3.15778805 -1.83899761  0.95676215
H  -2.56033434 -2.14268987  2.57145846
H   0.08536916 -2.90423727  2.48675210
H  -0.53394338 -1.50203789  3.37394048
H   0.90232455 -1.34346833  2.33425764
H  -0.24252895  0.55234124  1.29875227
H  -1.78227992  0.34492582  2.14760704
H  -2.97905647  0.18126576 -0.00058447
H  -0.24433115  0.55699327 -1.30057943
H  -1.78332257  0.34432952 -2.14807888
N   3.65518542  0.55015709  0.00096214
C   4.89353404  1.37188619  0.00074652
C   4.00278602 -0.90142938 -0.03206655
C   2.85262276  0.82362999  1.22896306
C   2.82020365  0.87224263 -1.19305282
H   4.57776941 -1.09813747 -0.93664461
H   5.48289319  1.11957425  0.88134703
H   5.45994875  1.15379154 -0.90378709
H   4.61756917  2.42517440  0.02454588
H   2.55963793  1.92984942 -1.16061509
H   3.39875888  0.65714973 -2.09097825
H   1.92965574  0.24127019 -1.13178778
H   3.45421242  0.57038635  2.10152140
H   2.59453917  1.88215027  1.24753917
H   1.95897699  0.19725462  1.16545740
H   4.60360366 -1.13212606  0.84724056
H   3.06460581 -1.46448311 -0.02927954

