56
Total Energy                               R     -1.153351805240495E+03
C   1.33296782 -1.63529381 -1.02968106
C   0.85920302 -1.73707312 -2.48953669
C   1.84584434 -3.02533049 -0.59200996
N   2.33890091 -0.54366113 -1.00398311
O   3.44913973 -0.90434070 -1.79966636
C   2.80779266 -0.06701445  0.32142916
C   3.70713745 -1.04911795  1.10426818
C   3.61797178  1.21126239  0.04776415
C   1.60372183  0.27047208  1.18854696
C   0.33892649 -0.32742683  0.92901708
C   0.16044130 -1.25747836 -0.13604433
C  -1.07308635 -1.82961011 -0.32199770
C  -2.17989268 -1.48733583  0.49042393
C  -3.51746044 -2.08378649  0.26456177
O  -4.50527268 -1.83268070  0.92843857
O  -3.55395966 -2.94316515 -0.75885876
C  -2.03299519 -0.57590085  1.50407468
C  -0.77339254  0.00893259  1.75530623
C  -0.61113177  0.92747030  2.82122062
C   0.61968704  1.46569442  3.07233668
C   1.72066051  1.12991086  2.25742461
H   1.70480024 -1.96490817 -3.13794414
H   0.41337561 -0.79436929 -2.81990662
H   0.12310271 -2.53101463 -2.62480982
H   2.80792161 -3.23886859 -1.06250881
H   1.13587192 -3.79700493 -0.90254853
H   1.96058277 -3.10595968  0.48911491
H   4.47435769 -1.46836886  0.45057830
H   3.14144080 -1.86895012  1.54731519
H   4.20818563 -0.52133586  1.92066875
H   4.45658938  0.98567698 -0.61056437
H   4.02898567  1.63595842  0.96480494
H   2.99384111  1.96989860 -0.43362553
H  -1.22163530 -2.55539707 -1.10943763
H  -4.45039595 -3.29526920 -0.84827868
H  -2.87709300 -0.30118981  2.12727073
H  -1.47158266  1.18131303  3.43223259
H   0.75928330  2.15987256  3.89429711
H   2.67854227  1.57871359  2.49145033
N  -1.27766383  2.92101401 -1.18233821
C   0.01848547  3.12227589 -0.47320064
C  -2.39500172  2.96779644 -0.19745083
C  -1.46216343  3.99532824 -2.19728863
C  -1.26932881  1.59278645 -1.85942289
H  -2.24412750  2.18093997  0.53965705
H   0.00506122  4.09817629  0.00932388
H   0.13329549  2.33675027  0.26947030
H   0.82580167  3.07141346 -1.20180931
H  -0.42991470  1.56028115 -2.55169380
H  -1.16372056  0.81916948 -1.10340573
H  -2.20829973  1.46774467 -2.39612136
H  -1.46245713  4.95881507 -1.69066276
H  -0.64155936  3.94620669 -2.91092973
H  -2.41187301  3.83736665 -2.70541738
H  -2.39296083  3.94290811  0.28662396
H  -3.33365862  2.81208527 -0.72665002

