44
Total Energy                               R     -1.363449243283157E+03
C   0.27679343 -1.86192631 -0.79015070
C   0.22278295 -1.58298247 -2.29593167
C   0.00394539 -3.36244796 -0.53859345
N   1.70862498 -1.63128898 -0.35582767
O   2.56196649 -1.90813129 -1.11565948
C   2.09577493 -1.14812233  1.02630476
C   1.84497771 -2.33445809  1.98482442
C   3.57517641 -0.80464306  0.99146220
C   1.17241289  0.00317149  1.38640515
C  -0.17552101 -0.00917243  0.94011024
C  -0.65527161 -0.94777552 -0.01334583
C  -1.98825898 -0.98295505 -0.32745145
C  -2.89347718 -0.05924610  0.24143361
C  -4.34018108 -0.09285139 -0.08762027
O  -5.15577989  0.69941000  0.33964375
O  -4.67648361 -1.09233330 -0.90570139
C  -2.43861963  0.90798000  1.10015247
C  -1.07788055  0.95379983  1.46827386
C  -0.60576918  1.93869764  2.37104772
C   0.70700388  1.95373723  2.74562850
C   1.59605551  0.97226402  2.25887908
H   0.87233065 -2.26689962 -2.84079459
H   0.50207090 -0.55327383 -2.51264659
H  -0.79863692 -1.75003912 -2.63412874
H   0.77796562 -3.96765006 -1.01311494
H  -0.95149386 -3.59158160 -1.01141559
H  -0.06441220 -3.60705749  0.51871776
H   2.33930182 -3.23935552  1.62712648
H   0.78414560 -2.52164904  2.14319143
H   2.28438255 -2.04491712  2.94036764
H   4.16602327 -1.67713352  0.71394631
H   3.88643236 -0.50935208  1.99165228
H   3.78174070  0.01166668  0.29871468
H  -2.36310938 -1.70646115 -1.03985664
H  -5.62857292 -1.06032078 -1.07410760
H  -3.12218407  1.64030363  1.51514795
H  -1.30640182  2.67074588  2.75863230
H   1.07622050  2.70558860  3.43371705
H   2.61900299  0.99060793  2.61135196
B   1.29948441  2.17386676 -1.63787851
F   2.01996604  0.97807841 -1.40389794
F  -0.06459731  1.87691201 -1.82115461
F   1.45319368  3.03817521 -0.53775894
F   1.80589428  2.79311072 -2.79953849

