27
Total Energy                               R     -4.822775702397672E+02
C   1.25404480  1.32157808 -0.64732606
C   2.41003626 -0.92772105 -0.56593124
C  -2.24376821 -0.41797837 -1.12019371
N  -0.00635014 -0.72795649 -0.17086623
O  -0.03920691 -1.86977097 -0.45731203
C  -1.32664746 -0.00700339  0.03561760
C  -1.88244680 -0.51529120  1.37622611
C   1.32582702 -0.05279277  0.03163181
C   1.49592197  0.07238593  1.55713822
C  -1.11593205  1.48136748  0.03551355
C   0.01518947  2.08413382 -0.29967507
H   2.22248529 -1.12940879 -1.62243504
H   3.35026987 -0.38065615 -0.48086123
H   1.33723596  1.19944523 -1.73254536
H  -2.46362199 -1.48528021 -1.09434648
H  -1.80303358 -0.15261186 -2.08284112
H  -3.17875423  0.13159399 -1.00293198
H  -2.00777668 -1.59885432  1.35175155
H  -2.86105907 -0.05148688  1.50959553
H  -1.24786604 -0.23559172  2.21670226
H   2.51337447 -1.87197544 -0.03054497
H   1.39414565 -0.89982352  2.04188592
H   2.51089103  0.43912295  1.71997498
H   0.79771334  0.77984902  2.00176321
H   2.14500583  1.86535624 -0.32567422
H   0.06333987  3.16754035 -0.32468966
H  -2.00759353  2.04457316  0.29174911

