27
Total Energy                               R     -4.825744201025352E+02
C   1.30469157  1.41273032 -0.42130496
C   2.42698031 -0.77285188 -0.70303389
C  -2.36928651 -0.31216107 -1.05298448
N  -0.01294126 -0.64007241 -0.53082974
O  -0.05684465 -2.04405636 -0.33015119
C  -1.26372000 -0.01902700 -0.02350233
C  -1.76504347 -0.53454107  1.34318404
C   1.46099446 -0.18422149  1.51005145
C   1.25562531 -0.06809988 -0.01227731
C   0.02504304  2.13275772 -0.13402946
C  -1.11580294  1.48029311  0.05755532
H   2.27431918 -0.81863377 -1.78557088
H   3.35212310 -0.21817786 -0.51549218
H   1.53674424  1.49244423 -1.49166383
H  -2.52017462 -1.38964354 -1.15852128
H  -3.32010866  0.13160415 -0.74140809
H  -2.10663103  0.09709506 -2.03277042
H  -1.97204298 -1.60542096  1.30418653
H  -2.69818758 -0.02405762  1.60167400
H  -1.05639652 -0.35330917  2.15091716
H   2.56959226 -1.79066864 -0.33402605
H   1.22197781 -1.19053140  1.86392062
H   2.50716437  0.01569688  1.76317980
H   0.84979617  0.53041531  2.06564617
H   2.13634262  1.89899615  0.10147477
H   0.04622643  3.21948680 -0.08656056
H  -2.03228934  2.02838942  0.27008168

