60
Total Energy                               R     -1.593804215332512E+03
C  -0.06893611  1.47106249 -1.79311848
C  -0.90514021  0.57204790 -2.70219087
C   0.56132611  2.60474869 -2.62377386
N  -0.97716717  2.06038923 -0.76978969
O  -2.14944949  2.37693690 -1.15171160
C  -0.50369631  2.72442122  0.47562648
C  -0.38864293  4.23608178  0.22134859
C  -1.56377438  2.45933981  1.55573947
C   0.81947864  2.12995488  0.93056648
C   1.47533940  1.10418035  0.20310489
C   1.03316025  0.69757948 -1.09046656
C   1.67424687 -0.32312651 -1.73662300
C   2.76561885 -0.96320708 -1.12032168
N   3.41106639 -2.06791155 -1.82327507
O   2.96707991 -2.40023906 -2.91071594
O   4.36564772 -2.61846390 -1.29856176
C   3.24764081 -0.58951728  0.09922733
C   2.61388048  0.47117975  0.78088962
C   3.10915839  0.90392993  2.03270690
C   2.50124467  1.94320129  2.68063599
C   1.35447970  2.54488915  2.12948086
H  -1.71984743  1.13657454 -3.15161741
H  -1.31799601 -0.27451759 -2.15016603
H  -0.28922271  0.18907319 -3.51534318
H  -0.22029222  3.25408947 -3.02579206
H   1.11899924  2.17055520 -3.45644374
H   1.25259412  3.20468227 -2.02984927
H  -1.33879159  4.62214455 -0.15328435
H   0.39704094  4.46878685 -0.49793153
H  -0.15866646  4.75005996  1.15642351
H  -2.54439407  2.79664637  1.22032174
H  -1.31094386  3.00809053  2.46341920
H  -1.61162098  1.39711339  1.80014522
H   1.37192375 -0.64777580 -2.72127700
H   4.09867756 -1.08695765  0.54631317
H   3.97459734  0.40605697  2.45694570
H   2.88097359  2.29634268  3.63284276
H   0.87588451  3.34036254  2.68954356
N  -3.99494857 -1.35520526 -0.30132347
C  -4.48109358 -0.52690448 -1.44148617
C  -3.09809006 -0.53439835  0.56110322
C  -5.15841464 -1.82420124  0.50322203
C  -3.24544706 -2.53345586 -0.82295511
H  -2.23030752 -0.23586142 -0.02164534
H  -5.02891934  0.32575739 -1.04433871
H  -3.62481513 -0.18605409 -2.01919610
H  -5.13434427 -1.13783383 -2.06237553
H  -3.91763151 -3.12738880 -1.44011708
H  -2.40452240 -2.17933275 -1.41576537
H  -2.88972562 -3.12235203  0.02024527
H  -5.68952387 -0.95547446  0.88850890
H  -5.81341918 -2.41212720 -0.13757966
H  -4.78987891 -2.43410147  1.32624600
H  -3.65049337  0.34196175  0.89497161
H  -2.79079552 -1.13497622  1.41433257
B   0.03785178 -2.13116819  1.91012807
F   1.34219483 -2.52279926  2.28051230
F  -0.89836995 -3.03271363  2.46537007
F  -0.21969403 -0.83535349  2.39994999
F  -0.07709874 -2.14816887  0.50685186

