60
Total Energy                               R     -1.593918755946443E+03
C   0.09573764 -1.60583543 -1.63516442
C   0.78933994 -0.74453460 -2.69994540
C  -0.48196492 -2.86040102 -2.33057973
N   1.09870308 -1.85929281 -0.57411636
O   2.23961754 -2.48797055 -1.11271755
C   0.65257943 -2.57965112  0.64229253
C   0.44373077 -4.10176604  0.47978733
C   1.75874680 -2.36099336  1.69388301
C  -0.63296457 -1.95189087  1.16427332
C  -1.39916306 -1.07115912  0.35628050
C  -1.06037856 -0.83744404 -1.01093029
C  -1.82224326  0.02690490 -1.75071268
C  -2.91697012  0.68555670 -1.15700248
N  -3.68915255  1.62149953 -1.96677136
O  -3.34606364  1.80881512 -3.12398591
O  -4.64797088  2.18529050 -1.46157481
C  -3.28686583  0.48269500  0.14062754
C  -2.53619885 -0.42223865  0.92102627
C  -2.91550152 -0.68827718  2.25775260
C  -2.19930738 -1.58783933  2.99764990
C  -1.06189517 -2.21045363  2.44787707
H   1.63300605 -1.28644234 -3.12492753
H   1.15868098  0.18730776 -2.26440148
H   0.11441005 -0.49963171 -3.52154007
H   0.31998418 -3.55862105 -2.58370049
H  -0.98863101 -2.57435961 -3.25672135
H  -1.21205206 -3.37883161 -1.70760528
H   1.31620236 -4.55563030  0.00580623
H  -0.43834592 -4.34588002 -0.11150513
H   0.31716672 -4.56356584  1.46278722
H   2.71606495 -2.71309283  1.30938656
H   1.55094182 -2.90991979  2.61417091
H   1.85231079 -1.30146615  1.94286324
H  -1.60673183  0.21955012 -2.79113161
H  -4.13743965  0.99363116  0.57329900
H  -3.77989939 -0.17972644  2.67202421
H  -2.48933425 -1.81503096  4.01791805
H  -0.50762202 -2.90063184  3.07367336
N   3.95410518  1.40233428 -0.53394658
C   4.40274901  0.58102971 -1.69357533
C   3.23659747  0.53023584  0.44045325
C   5.13703968  2.01857324  0.12998358
C   3.03990734  2.47837462 -1.00933649
H   2.38364316  0.05664131 -0.04863936
H   5.06392680 -0.20371399 -1.33014751
H   3.52869429  0.14076258 -2.16908088
H   4.93170823  1.22443903 -2.39498002
H   3.57383047  3.09735388 -1.72874530
H   2.17270200  2.02016659 -1.47868681
H   2.73104608  3.07698015 -0.15499158
H   5.80225756  1.22549317  0.46665730
H   5.64895027  2.65941885 -0.58621446
H   4.79255618  2.60535706  0.97994335
H   3.93008755 -0.23349029  0.78918312
H   2.90900238  1.14575068  1.27649992
B  -0.05557678  2.32482450  1.77503155
F  -1.36518674  2.67775926  2.16677061
F   0.83630888  3.36045591  2.13592484
F   0.32528722  1.13638544  2.42811939
F  -0.01611334  2.14283035  0.37983790

