26
Total Energy                               R     -4.442083623289304E+02
C   0.00000000  1.25998526 -0.13670628
C   0.28653754  0.71014637 -1.53445776
C   1.03494687  2.22224331  0.41814449
N   0.00000000 -0.00000000  0.68631422
O   0.00000000 -0.00000000  1.86135053
C  -1.42965642  1.81174669 -0.00115588
C  -1.03494687 -2.22224331  0.41814449
C  -0.28653754 -0.71014637 -1.53445776
C  -0.00000000 -1.25998526 -0.13670628
C   1.42965642 -1.81174669 -0.00115588
H  -1.47694258  2.72033889 -0.60315797
H  -0.17735617  1.34229502 -2.29049846
H   1.36352450  0.69715904 -1.71298881
H   1.04667851  3.10200328 -0.22784642
H   2.02959463  1.77218830  0.41119850
H   0.78275910  2.53947518  1.43108595
H  -1.64605836  2.05856124  1.03948909
H  -0.78275910 -2.53947518  1.43108595
H  -2.02959463 -1.77218830  0.41119850
H  -2.17818256  1.10787663 -0.36973111
H  -1.04667851 -3.10200328 -0.22784642
H  -1.36352450 -0.69715904 -1.71298881
H   0.17735617 -1.34229502 -2.29049846
H   1.47694258 -2.72033889 -0.60315797
H   2.17818256 -1.10787663 -0.36973111
H   1.64605836 -2.05856124  1.03948909

