26
Total Energy                               R     -4.443920191519447E+02
C  -0.00000000  1.25121133 -0.12040398
C   0.28670607  0.71002516 -1.52695925
C  -1.38406774  1.89696381 -0.02058618
N   0.00000000  0.00000000  0.67380604
O   0.00000000  0.00000000  1.94499312
C  -0.00000000 -1.25121133 -0.12040398
C  -1.07803518 -2.19826345  0.38806020
C   1.38406774 -1.89696381 -0.02058618
C  -0.28670607 -0.71002516 -1.52695925
C   1.07803518  2.19826345  0.38806020
H  -1.36644571 -0.68498824 -1.69882106
H  -0.16015822  1.34289355 -2.29536833
H   1.12528227  3.07532269 -0.26266191
H  -2.16010277  1.23883900 -0.42051892
H  -1.39726741  2.83054344 -0.58885594
H  -1.62714790  2.12546034  1.02050000
H  -0.85958323 -2.54045735  1.40257862
H  -2.05830560 -1.71454256  0.38418911
H   1.62714790 -2.12546034  1.02050000
H  -1.12528227 -3.07532269 -0.26266191
H   1.39726741 -2.83054344 -0.58885594
H   0.16015822 -1.34289355 -2.29536833
H   1.36644571  0.68498824 -1.69882106
H   2.16010277 -1.23883900 -0.42051892
H   2.05830560  1.71454256  0.38418911
H   0.85958323  2.54045735  1.40257862

