26
Total Energy                               R     -4.444969675517134E+02
C  -1.20199552  0.10585467 -0.02542234
C  -2.27023927  0.09283233 -1.12148464
C  -1.80949365 -0.51845642  1.23791059
N   0.01267773 -0.58636967 -0.54323884
O   0.01956469 -1.98047631 -0.31304291
C   1.21308427  0.11708105 -0.03955635
C   1.58485090 -0.16494366  1.42752579
C   2.41219003 -0.22081405 -0.91920676
C   0.76108728  1.56872928 -0.20569623
C  -0.70045865  1.54401100  0.25643438
H   2.70396195 -1.26967020 -0.80333915
H  -1.91949939  0.62241249 -2.01275505
H  -2.51533495 -0.93487995 -1.41039772
H   1.66252223 -1.23917444  1.61609190
H  -2.61717490  0.12364283  1.60510365
H  -2.23679799 -1.50377538  1.03504286
H   2.55618702  0.28345393  1.65899967
H   0.85990919  0.24911170  2.13161343
H   1.37731758  2.26300255  0.37239120
H   3.27682343  0.39481917 -0.65043594
H   0.83308124  1.85819719 -1.25917022
H   2.18385969 -0.04560572 -1.97487398
H  -1.30906227  2.29606225 -0.25283300
H  -0.76207256  1.75810346  1.32728045
H  -3.19355062  0.57451007 -0.78096112
H  -1.07958373 -0.62757697  2.04223166

