51
Total Energy                               R     -3.695996889447470E+03
C   0.57568177  0.24653079 -0.40450357
C   0.41759387  1.69140350  0.04281952
C   1.26501895  0.19077326 -1.77944981
N   1.49854729 -0.44410165  0.59140839
O   2.19663011  0.22487010  1.26201653
C   1.57163420 -1.95755195  0.75801505
C   2.48568071 -2.49227508 -0.35736610
C   2.19215750 -2.24022835  2.11752358
C   0.14296483 -2.52796150  0.68728348
C  -0.65894757 -1.98326015 -0.47943690
Br  -2.45845053 -2.78415380 -0.46222652
C  -0.78240015 -0.47595822 -0.37644914
H   1.35282752  2.24450790 -0.03862205
H   0.04164923  1.75567439  1.06624686
H  -0.31336827  2.15472153 -0.62170732
H   2.29030052  0.55487676 -1.71473372
H   0.69888622  0.86040533 -2.42967015
H   1.25979087 -0.80025368 -2.22690535
H   3.42726404 -1.94334250 -0.38916046
H   2.02365707 -2.47568069 -1.34144745
H   2.69963444 -3.53142435 -0.10081051
H   3.23961079 -1.94040639  2.15737680
H   2.13995596 -3.31858074  2.27684978
H   1.64192317 -1.74831830  2.92222614
H  -0.37172754 -2.29562104  1.62393149
H   0.25264079 -3.61203573  0.62412820
H  -0.25075756 -2.29547098 -1.43802200
H  -1.29064164 -0.21922125  0.55679942
H  -1.36484218 -0.06272081 -1.20186246
N  -4.65846564  2.37427866  0.23803920
C  -3.43540741  1.64003403  0.67183667
C  -5.84128317  1.85016913  0.97934850
C  -4.49382588  3.82847972  0.52542866
C  -4.85937067  2.17489008 -1.22602697
H  -5.94836022  0.78934189  0.75949489
H  -3.29021180  1.80004461  1.73903533
H  -3.57693892  0.58096998  0.46528046
H  -2.58288359  2.02306958  0.11415121
H  -3.98920380  2.56193818 -1.75331621
H  -4.97435215  1.10959287 -1.41997671
H  -5.75501786  2.71276417 -1.53214771
H  -4.34698651  3.95775827  1.59643300
H  -3.62605788  4.19507666 -0.02055503
H  -5.39179994  4.35213455  0.20208448
H  -5.67869384  1.99993302  2.04528695
H  -6.72643556  2.39389096  0.65345497
B   4.81732609  1.72488512 -0.22377105
F   3.78545717  2.57984083 -0.66384683
F   5.06966721  1.95345993  1.14325865
F   4.42851079  0.37969641 -0.41386293
F   5.98732957  1.97998749 -0.96926693

