51
Total Energy                               R     -3.696186698555688E+03
C   0.23606051 -0.45371564 -1.34235488
C   0.29349487  0.61320532 -2.43534448
C   1.21098440 -1.58724360 -1.68704394
N   0.64673715  0.18172554 -0.05668088
O   1.70994656  0.88125501 -0.09000242
C   0.19313012 -0.26409967  1.29272997
C   1.15186944 -1.33644288  1.82621203
C   0.22002739  0.94750863  2.22421611
C  -1.25055329 -0.78912534  1.22171722
C  -1.45663399 -1.71916036  0.04621542
Br  -3.30818536 -2.42391777  0.06815641
C  -1.20985391 -0.96845907 -1.24415847
H   1.31692043  0.94685784 -2.61136141
H  -0.31688871  1.47856409 -2.16799277
H  -0.09580181  0.19139993 -3.36575827
H   2.23264809 -1.20460573 -1.73763226
H   0.95498462 -1.99717570 -2.66773688
H   1.18067346 -2.40331846 -0.96256130
H   2.17201205 -0.94837872  1.85809768
H   1.14545312 -2.24539338  1.22210159
H   0.86112411 -1.60601881  2.84508217
H   1.23880661  1.30332179  2.38303578
H  -0.19940652  0.66159175  3.19249987
H  -0.37889687  1.76490532  1.81764306
H  -1.93529452  0.05805136  1.12499090
H  -1.46969847 -1.28750319  2.16850936
H  -0.84786888 -2.61844202  0.12123815
H  -1.89655776 -0.11884829 -1.29286738
H  -1.39759776 -1.59958267 -2.11545092
N   5.22580652  0.19760251  0.02858684
C   4.69156185 -1.19069344  0.12605709
C   4.71550990  1.00594188  1.17468007
C   6.71503952  0.16048571  0.06808732
C   4.77267436  0.81295422 -1.25314839
H   3.62764116  1.02702837  1.12617066
H   5.01700172 -1.62574711  1.06952156
H   3.60601577 -1.14802504  0.08617843
H   5.07566947 -1.77215780 -0.71059103
H   5.14506191  0.20938051 -2.07933531
H   3.68380020  0.84008603 -1.25753649
H   5.17623625  1.82245384 -1.31408904
H   7.02723232 -0.29507133  1.00667296
H   7.07311357 -0.42946661 -0.77401187
H   7.09123059  1.17991887  0.00080801
H   5.04996772  0.54307150  2.10170154
H   5.11724189  2.01478226  1.09292484
B  -3.07047181  2.70553060 -0.04216118
F  -3.56632224  1.76451952 -0.96850171
F  -3.71747998  3.94481622 -0.24253279
F  -3.32253742  2.25348456  1.27017783
F  -1.68290726  2.86779296 -0.22863588

