24
Total Energy                               R     -4.804070748716464E+02
C   1.19905812  0.12531368 -0.01213368
C   1.60433366 -0.44951307  1.35218345
C   2.38938257  0.06629939 -0.96050449
N   0.01586956 -0.49831268 -0.64357890
O   0.01373745 -1.90880146 -0.61480958
C  -1.18096030  0.10603317 -0.00905712
C  -2.22210247  0.41178634 -1.07872783
C  -1.81890569 -0.69341953  1.12217226
O  -0.70304836  1.34883791  0.54468039
C   0.65168074  1.53553315  0.13766675
H   2.54983151 -0.00416177  1.67593840
H   0.86199826 -0.24480976  2.12617564
H   1.16045256  2.12209090  0.90498251
H   3.23324161  0.63960250 -0.56406595
H   0.68945453  2.08060401 -0.81411422
H   2.13072377  0.46987007 -1.94334203
H   2.72358865 -0.96738625 -1.09245812
H  -1.81168835  1.10346700 -1.81894061
H  -2.51283772 -0.50998817 -1.59106124
H   1.74639054 -1.53083579  1.29302754
H  -2.33326658 -1.57533263  0.73613101
H  -1.08732624 -1.01892460  1.86183734
H  -2.56143284 -0.06433768  1.62159052
H  -3.12064896  0.85584048 -0.63921099

