24
Total Energy                               R     -4.802923218985890E+02
C  -1.23704286 -0.12719880  0.00474237
C  -1.82015673  0.09269781  1.40054233
C  -2.24287055  0.20578515 -1.08427985
N  -0.01103804  0.67956009 -0.14578368
O  -0.00034690  1.94234991 -0.24610370
C   1.22498768 -0.12207739  0.01545768
C   1.97801825 -0.18071157 -1.30603138
C   2.07494154  0.41109839  1.15029143
O   0.70593592 -1.39133462  0.38101410
C  -0.61473693 -1.51449256 -0.15378511
H  -2.73045068 -0.50045774  1.51675071
H  -1.10983100 -0.20331801  2.17641287
H  -1.13391640 -2.28205071  0.41764393
H  -3.09351207 -0.47668924 -1.01408986
H  -0.57036565 -1.80905935 -1.20775837
H  -1.79926857  0.10471319 -2.07756971
H  -2.61636049  1.22555446 -0.96694692
H   1.35960429 -0.62537966 -2.08894774
H   2.26646978  0.82564623 -1.61797400
H  -2.07415557  1.14591563  1.54394158
H   2.44824463  1.40741958  0.90688051
H   1.49345254  0.46149882  2.07295632
H   2.93104268 -0.24944863  1.30231631
H   2.88275813 -0.77999374 -1.18403801

