55
Total Energy                               R     -1.424081794596249E+03
C   0.53946792  0.37571248 -1.28097987
C   1.33662228 -0.36474131 -2.34864060
C  -0.20398015  1.59164235 -1.84624821
N   1.49464548  0.91006400 -0.23984616
O   2.41495778  1.58277701 -0.50675489
C   1.13554873  0.53680272  1.17888344
C   2.35673125 -0.07366907  1.85503291
C   0.67308718  1.83280896  1.85926477
C   0.00751865 -0.42067844  0.92527334
C  -0.32527526 -0.49994872 -0.41952985
C  -1.37539997 -1.29068512 -0.84310692
C  -2.09270259 -2.01186487  0.11039699
C  -3.24682934 -2.82034570 -0.35780741
O  -3.58339289 -2.91340388 -1.52098348
O  -3.90065707 -3.43793603  0.62760670
C  -1.74676492 -1.94301168  1.46299276
C  -0.69171070 -1.14300974  1.87915559
H   2.02418906  0.31403840 -2.85456669
H   0.62057310 -0.74793946 -3.07769304
H   1.88739876 -1.20239530 -1.92056649
H   0.48911774  2.24548820 -2.37760903
H  -0.70650166  2.14800133 -1.05424147
H  -0.95236248  1.21623035 -2.54601611
H   3.17361360  0.64697133  1.89486665
H   2.68150295 -0.97646400  1.33816416
H   2.06635538 -0.33353166  2.87442525
H   1.50582849  2.53377683  1.93485645
H   0.33330063  1.56745833  2.86148347
H  -0.15332097  2.29500682  1.31637063
H  -1.64849960 -1.34171621 -1.89067364
H  -4.63921058 -3.94130362  0.25691597
H  -2.30984567 -2.50619536  2.19623462
H  -0.42873075 -1.07841501  2.92884760
N  -4.12261229  1.82660985  0.04228530
C  -3.75766021  3.19415499 -0.42411565
C  -4.12632065  0.89288435 -1.11946959
C  -3.12641745  1.36308602  1.04904682
C  -5.47734307  1.85679605  0.66186558
H  -4.86331406  1.24049837 -1.84146432
H  -2.76516431  3.15956323 -0.86937737
H  -4.48848062  3.51864621 -1.16264526
H  -3.76240955  3.86797507  0.43074136
H  -5.45618154  2.53498665  1.51331246
H  -6.19421177  2.20555739 -0.07939778
H  -5.73379743  0.85054572  0.98888897
H  -2.15036445  1.31998336  0.57292974
H  -3.11175385  2.06876039  1.87813579
H  -3.42027004  0.37641160  1.40033373
H  -3.13447983  0.88960111 -1.56713997
H  -4.38604400 -0.10390791 -0.76803444
B   5.49201573 -0.24917830 -0.09279493
F   5.51168805 -1.23193320  0.91836704
F   5.44077121  1.03169092  0.49485640
F   6.65973298 -0.35892970 -0.87692955
F   4.35892550 -0.43922290 -0.91198407

