55
Total Energy                               R     -1.424270463209318E+03
C   0.62378057  0.61233075  1.26569178
C   1.56839773  1.81516957  1.30195283
C   0.19609762  0.20428914  2.67319029
N   1.28184390 -0.53055175  0.58506785
O   2.33326278 -1.07044999  1.04261322
C   0.70552899 -0.91773130 -0.72567700
C   1.69351303 -0.60179989 -1.85044080
C   0.33350150 -2.39853390 -0.71428100
C  -0.49732969 -0.01351833 -0.76356993
C  -0.54313287  0.83252734  0.33780733
C  -1.58080732  1.73306650  0.49218776
C  -2.58483137  1.77559218 -0.47726213
C  -3.70403328  2.72798773 -0.28645257
O  -3.78165197  3.52115023  0.63201303
O  -4.64803612  2.64043446 -1.22828667
C  -2.53352791  0.92596549 -1.58705454
C  -1.48549837  0.02886679 -1.73569310
H   2.46252590  1.58009222  1.88471099
H   1.06190779  2.66048949  1.77390225
H   1.87013879  2.10921417  0.29382550
H   1.07090689 -0.04174843  3.27969996
H  -0.47246302 -0.65901052  2.64616133
H  -0.32775315  1.03524678  3.15126743
H   2.60101725 -1.19925791 -1.73992824
H   1.96391337  0.45647287 -1.85042482
H   1.23673688 -0.84489257 -2.81276822
H   1.23004851 -3.01222226 -0.59921547
H  -0.14416670 -2.66330676 -1.66022880
H  -0.35849084 -2.62313905  0.10004471
H  -1.62489251  2.39072053  1.35342614
H  -5.34366069  3.28597104 -1.04319161
H  -3.31801429  0.95900538 -2.33241767
H  -1.45159245 -0.63555483 -2.59230806
N   5.77659130  0.11584933 -0.21552463
C   5.51150824 -1.15259993 -0.95240877
C   7.04268207  0.72606503 -0.70837693
C   4.64396970  1.05947430 -0.43803514
C   5.89714221 -0.17342425  1.24178126
H   7.85948694  0.02785080 -0.53338371
H   5.39370640 -0.92401619 -2.01022894
H   6.35464269 -1.82525267 -0.80518927
H   4.60153027 -1.60039845 -0.55801088
H   4.96045656 -0.60491771  1.59036203
H   6.71579619 -0.87503841  1.39268716
H   6.10028223  0.75853355  1.76652769
H   4.57025126  1.27374904 -1.50283199
H   3.73468133  0.58431862 -0.08241578
H   4.83646596  1.97491244  0.11909773
H   6.94305182  0.92828562 -1.77339982
H   7.21786169  1.65289304 -0.16485080
B  -3.95152491 -2.07304035  0.34298413
F  -3.27439029 -2.68819171 -0.73026533
F  -4.70653361 -3.04516620  1.03653987
F  -3.01738182 -1.49307038  1.22470396
F  -4.81793423 -1.07716306 -0.15359126

