55
Total Energy                               R     -1.424381195995977E+03
C  -0.68107420  0.93632929 -0.41769737
C  -1.46963981  0.81771077 -1.72199869
C  -1.08417070 -0.21617329  0.51966227
N  -0.84663537  2.30984134  0.13608335
O  -2.01937302  2.47858493  0.89360690
C   0.39606185  2.70956672  0.85474074
C   0.59666277  4.21968172  0.72584649
C   0.45954520  2.33518707  2.34672667
C   1.42579081  1.92128415  0.08771808
C   0.80919685  0.90995679 -0.64154543
C   1.55826451  0.02842320 -1.39660566
C   2.95035768  0.16457325 -1.41357854
C   3.73695665 -0.80723235 -2.20318369
O   3.25670484 -1.72187841 -2.84677918
O   5.05883288 -0.60059877 -2.15544296
C   3.56911909  1.18265760 -0.68055590
C   2.80620106  2.06753604  0.07253570
H  -2.53237812  0.99585349 -1.54011557
H  -1.36954080 -0.18123079 -2.15742933
H  -1.12004578  1.54972943 -2.45510729
H  -2.14535544 -0.15998394  0.77219314
H  -0.51462721 -0.21397954  1.44890626
H  -0.90269314 -1.17354445  0.02256026
H  -0.23525741  4.75013415  1.19895322
H   0.64469620  4.52095538 -0.32394235
H   1.51941553  4.53938169  1.21945267
H  -0.32802629  2.84896005  2.90317242
H   1.42339815  2.64599956  2.76027206
H   0.35542345  1.26302087  2.51663775
H   1.08458899 -0.76891300 -1.95921504
H   5.50249688 -1.26931394 -2.69469494
H   4.64752063  1.28306836 -0.69541913
H   3.29078068  2.85413385  0.64219157
N  -5.31625513 -0.96634866 -0.47588037
C  -5.27167053 -1.59963513  0.87282085
C  -5.13143924  0.50638386 -0.33569844
C  -4.22821634 -1.53395487 -1.32269897
C  -6.63401153 -1.24161130 -1.11523236
H  -5.94538349  0.90182196  0.26973148
H  -4.30396435 -1.38672766  1.32447567
H  -6.07152044 -1.18194193  1.48181465
H  -5.40647058 -2.67396658  0.75920860
H  -6.75989289 -2.31908641 -1.20752019
H  -7.42129339 -0.82310088 -0.49071301
H  -6.64798731 -0.77619158 -2.09924624
H  -3.27463419 -1.35940459 -0.83080002
H  -4.40074157 -2.60277680 -1.43765270
H  -4.24726940 -1.04351895 -2.29415719
H  -4.17697211  0.69912095  0.15047711
H  -5.14766908  0.95680437 -1.32642801
B   2.05771619 -2.36151034  1.80014588
F   3.05907552 -3.13695991  2.42599471
F   1.97852300 -2.71441802  0.43795672
F   0.81610202 -2.61103817  2.42295207
F   2.38164756 -0.99593537  1.92438885

