31
Total Energy                               R     -6.720272290412925E+02
C  -0.20285148 -0.85557140  0.00000194
C  -2.55824559 -1.31577909  0.00000033
C  -1.24387398 -1.77236883  0.00000118
N   1.80482876  0.25564179  0.00001959
O  -4.09064894  0.54705488  0.00000026
C  -0.47769638  0.50685174  0.00000146
C  -1.77995013  0.98010644  0.00000017
C  -2.82249596  0.05588883 -0.00000044
C   0.78438691  1.33153086  0.00000151
C   1.27934742 -1.13168039  0.00000145
C   1.74538568 -1.86218755 -1.25973476
C   1.74538463 -1.86221859  1.25971925
O   3.04429105  0.50616028  0.00001291
C   0.92816139  2.18481877 -1.26040993
C   0.92814695  2.18484464  1.26039686
H  -3.38276402 -2.02372071  0.00000100
H   1.32215024 -2.86986806 -1.28247340
H   1.42637386 -1.33161244 -2.16054277
H  -1.04572711 -2.83991881  0.00000173
H   1.42636521 -1.33167091  2.16054067
H   1.32215733 -2.86990324  1.28242857
H  -2.00075649  2.04283051 -0.00000038
H   0.83444452  1.57250646 -2.16093840
H   0.15101728  2.95319931 -1.28022918
H  -4.72934506 -0.17443084 -0.00000662
H   0.15100892  2.95323221  1.28018739
H   0.83441120  1.57255256  2.16093702
H   2.83492397 -1.94766948 -1.26929625
H   2.83492362 -1.94769250  1.26928278
H   1.90184605  2.68076061 -1.27222860
H   1.90183545  2.68077896  1.27221971

