31
Total Energy                               R     -6.718390648787001E+02
C  -1.26088726 -1.15018199  0.00341359
C  -1.76949882 -1.90202411 -1.22656808
C  -1.76590343 -1.77065482  1.31167663
N  -1.81158253  0.25450241 -0.05554390
O  -2.96011292  0.48441684 -0.13626389
C  -0.76420157  1.34030851  0.00561480
C  -0.94204027  2.23825232 -1.21771352
C  -0.98489602  2.09686734  1.32129094
C   0.48498610  0.50490809 -0.00575250
C   0.21206673 -0.85520739 -0.00481923
C   1.24994946 -1.77415396 -0.00655944
C   2.55993544 -1.31327013 -0.00884005
O   4.08624376  0.55122519 -0.01178731
C   2.82404995  0.05966401 -0.00942805
C   1.78217895  0.98480737 -0.00803025
H  -2.85442144 -2.01525472 -1.19438397
H  -1.31479832 -2.89397158 -1.21024633
H  -1.47430002 -1.39593497 -2.14744369
H  -2.85320570 -1.86633235  1.30079608
H  -1.45174097 -1.18441781  2.17658146
H  -1.32580399 -2.76675489  1.38375220
H  -1.90206420  2.75555249 -1.18384276
H  -0.85880805  1.66611325 -2.14329168
H  -0.14419826  2.98243466 -1.19165306
H  -1.94930323  2.60773265  1.31565038
H  -0.19177327  2.84215204  1.40030357
H  -0.92337836  1.42549920  2.17948242
H   1.04945891 -2.84031243 -0.00644970
H   3.38468785 -2.02012735 -0.01086700
H   4.72963031 -0.16666656 -0.01257098
H   1.99761415  2.04774388 -0.00830915

