50
Total Energy                               R     -8.124608028042592E+02
C   0.98881682  1.49461451 -0.26747691
C   0.72898675  2.69307443 -1.18019465
C   0.20381925  1.67877873  1.03806278
N   0.50949605  0.26423295 -0.96736130
O  -0.65974899  0.32442836 -1.47680769
C   1.06585810 -1.10532350 -0.74727056
C   0.31144557 -1.78685893  0.40205454
C   0.85991678 -1.91335189 -2.02837267
C   2.56831290 -1.02329599 -0.45347885
C   2.92603830  0.05609884  0.55623542
O   4.33005769  0.13054139  0.78248210
C   4.85069830 -0.94489262  1.54247960
C   2.49518240  1.39589615 -0.00297606
H  -0.33813798  2.87490134 -1.31516382
H   1.18881403  2.54883384 -2.16104856
H   1.16950080  3.58347185 -0.72488149
H  -0.86710090  1.74171755  0.83460193
H   0.51285730  2.61521936  1.50930992
H   0.37677181  0.87000674  1.74950442
H  -0.75589154 -1.84180884  0.18002759
H   0.44300455 -1.27307034  1.35543937
H   0.68453635 -2.80794661  0.51510831
H  -0.19724941 -2.09379357 -2.22801575
H   1.35301524 -2.88202387 -1.91549417
H   1.29992689 -1.40549966 -2.89019728
H   3.11080137 -0.80910300 -1.38115476
H   2.88408252 -2.01127627 -0.11087765
H   2.43594307 -0.13793956  1.51913638
H   5.88860124 -0.70103644  1.77067207
H   4.82491436 -1.88891505  0.98852301
H   4.29576772 -1.06564584  2.48047712
H   3.03927896  1.56371873 -0.93910827
H   2.76923674  2.20083209  0.68377547
N  -3.93180738 -0.18232418  0.44773918
C  -2.97071213 -0.34322068  1.57535199
C  -3.64131209 -1.20057695 -0.60259383
C  -5.32165311 -0.36844691  0.95178823
C  -3.78992493  1.18321448 -0.13368275
H  -2.63466007 -1.03331582 -0.98148102
H  -3.08301500 -1.34359429  1.98993066
H  -1.96220899 -0.20568070  1.19567039
H  -3.19214027  0.40633817  2.33311756
H  -3.99176767  1.91650026  0.64527420
H  -2.77462878  1.29787139 -0.50908102
H  -4.50537004  1.29216555 -0.94719010
H  -5.41140733 -1.37077563  1.36708207
H  -5.51819450  0.37570959  1.72145946
H  -6.01463707 -0.24314697  0.12178934
H  -3.72119112 -2.19183038 -0.15963296
H  -4.36857999 -1.08826105 -1.40517055

