38
Total Energy                               R     -1.022680673216620E+03
C  -0.70953539 -1.45762005 -0.26887967
C  -0.26510995 -2.58013810 -1.19490364
C  -0.00596310 -1.59569116  1.09299604
N  -0.22512777 -0.14597005 -0.87424903
O   0.69540697 -0.17947671 -1.60698576
C  -0.83955167  1.21011561 -0.55073898
C  -0.17632326  1.69317413  0.75095376
C  -0.48487165  2.15609379 -1.68842761
C  -2.35686231  1.04428688 -0.42432170
C  -2.78894940 -0.13487004  0.44019444
O  -4.20066693 -0.27128192  0.45361591
C  -4.86343436  0.67011750  1.28096764
C  -2.23623168 -1.41812857 -0.15112565
H   0.81812529 -2.70039738 -1.20008800
H  -0.61891578 -2.41947438 -2.21518700
H  -0.71065425 -3.50171780 -0.81713305
H   1.06972039 -1.45074810  0.99216313
H  -0.18956729 -2.61909389  1.42482582
H  -0.39687282 -0.91898591  1.84908643
H   0.91013105  1.65445854  0.66973495
H  -0.49553555  1.14061459  1.63123327
H  -0.47904029  2.73449641  0.87480876
H   0.58372371  2.36809818 -1.72410440
H  -1.01385703  3.09233517 -1.50309779
H  -0.81039244  1.76161279 -2.65293895
H  -2.78674540  0.91618947 -1.42264828
H  -2.72752211  1.98915251 -0.02255823
H  -2.44413847 -0.00386631  1.47228936
H  -5.91736932  0.39287117  1.29360210
H  -4.77170205  1.69041300  0.89472788
H  -4.46875429  0.63546517  2.30274822
H  -2.67307351 -1.56070224 -1.14433774
H  -2.52165357 -2.27441844  0.46367255
B   3.60039808  0.15082830  0.45023092
F   3.27951653 -1.09438056 -0.12975359
F   3.18928723  1.19071243 -0.40905341
F   2.93924584  0.27621449  1.68995796
F   4.99429196  0.23005090  0.64978910

