50
Total Energy                               R     -8.125648530669357E+02
C  -1.53948905 -1.11587086 -1.07837132
C  -0.82834749 -2.28228618 -1.77394599
C  -2.94201227 -1.05534359 -1.71172559
N  -1.59844513 -1.40039634  0.39253562
O  -0.28366912 -1.74589723  0.82491762
C  -2.06930587 -0.24077731  1.21684837
C  -3.58596208 -0.01550646  1.07006392
C  -1.84549026 -0.57096285  2.69741692
C  -1.30825928  1.06497426  0.89287328
C  -1.26754698  1.37685843 -0.59824630
O  -0.38852971  2.46871384 -0.89785895
C  -0.82899805  3.71836360 -0.40382379
C  -0.75929198  0.17896577 -1.37955498
H  -1.34923146 -3.22590354 -1.57802533
H   0.20515790 -2.38865933 -1.44895148
H  -0.82992920 -2.11960138 -2.85600938
H  -3.58046415 -1.85112914 -1.31855158
H  -2.85326618 -1.20525106 -2.79143008
H  -3.45953964 -0.10847010 -1.57488350
H  -4.12410527 -0.96710452  1.08951967
H  -3.87652176  0.51806306  0.16822711
H  -3.94205051  0.58415708  1.91254325
H  -2.36019666 -1.49859662  2.97040338
H  -2.25525237  0.23221870  3.31744547
H  -0.78995017 -0.68054190  2.94068092
H  -0.27704734  0.98471932  1.25107786
H  -1.77726151  1.88508274  1.44591185
H  -2.26754581  1.66475655 -0.94978302
H  -0.19051346  4.48338874 -0.84784367
H  -0.74596622  3.78153558  0.68634187
H  -1.86998044  3.91109979 -0.69233085
H   0.29279637  0.02678784 -1.12160415
H  -0.80380971  0.39236519 -2.45326756
N   3.61134662 -0.15624340  0.14106993
C   2.54556147  0.69834181  0.73768827
C   4.24404856 -0.97632573  1.21220836
C   3.01198390 -1.05918427 -0.88346321
C   4.64142485  0.70902007 -0.49892705
H   4.67581184 -0.30836203  1.95547082
H   1.80483259  0.05094181  1.20312641
H   2.99918116  1.35301835  1.48006625
H   2.08488960  1.28747161 -0.05290239
H   4.16356474  1.30453277 -1.27475145
H   5.07326793  1.35883737  0.26011687
H   5.41175066  0.07425237 -0.93337172
H   2.24918974 -1.67004567 -0.40434034
H   2.56847448 -0.45067192 -1.66935384
H   3.79978455 -1.68860411 -1.29422020
H   3.48023451 -1.60335601  1.66868129
H   5.02108324 -1.59458634  0.76605394

