52
Total Energy                               R     -9.058176234331156E+02
C  -1.83692803 -0.44003411 -1.25304233
C  -2.84132779  0.18872420 -2.21872717
C  -0.78336860 -1.20182403 -2.07716564
N  -2.56691000 -1.24435052 -0.23345232
O  -2.87974704 -2.54884402 -0.66018273
C  -1.83076650 -1.19493285  1.06120251
C  -2.82911977 -1.25984578  2.21692110
C  -0.77057605 -2.29109489  1.27443219
C  -1.15812737  0.15002269  0.94802737
C  -1.16037926  0.58032743 -0.37217575
C  -0.53261705  1.76394886 -0.73162901
C   0.10785006  2.53170875  0.24384686
C   0.77851660  3.82491655 -0.13726201
N  -0.17189244  4.94722903 -0.08039459
C   0.09733506  2.09322983  1.57049113
C  -0.53087701  0.90334249  1.93093680
H  -3.39314984 -0.59259703 -2.75062379
H  -2.33591477  0.80724263 -2.96713592
H  -3.56055903  0.81491800 -1.68397229
H  -1.25457288 -1.97261035 -2.69180871
H  -0.02724559 -1.67883677 -1.45382192
H  -0.26931762 -0.50481206 -2.74609512
H  -3.37691118 -2.20699259  2.19057535
H  -3.55241861 -0.44223293  2.15634398
H  -2.31920631 -1.19711003  3.18341112
H  -1.23449368 -3.27914239  1.32740552
H  -0.24955125 -2.11387916  2.22015380
H  -0.02216694 -2.30839632  0.48167050
H  -0.51696979  2.09032814 -1.76918238
H   1.22801762  3.71462806 -1.13250317
H   1.59143969  4.03809093  0.56025234
H  -0.90498527  4.78096766 -0.76373969
H   0.30573114  5.78877587 -0.38801554
H   0.59919898  2.68768515  2.32918097
H  -0.51584828  0.56912448  2.96448109
N   3.29752175 -1.12676215 -0.14795959
C   2.89880946 -2.30165051 -0.97314343
C   4.63532572 -0.64266022 -0.58965933
C   2.29524345 -0.03503902 -0.31243287
C   3.35692765 -1.52344340  1.28709987
H   5.35876838 -1.44619063 -0.46322239
H   2.82979134 -1.99099989 -2.01407476
H   3.65377173 -3.07809871 -0.86108762
H   1.93472219 -2.66596592 -0.62493864
H   2.37103400 -1.86973219  1.59401973
H   4.08858800 -2.32169453  1.40112424
H   3.65003919 -0.65648044  1.87677588
H   2.23546971  0.22955903 -1.36642670
H   1.33298246 -0.39483588  0.04298058
H   2.61804264  0.82269503  0.27439334
H   4.57270649 -0.35498471 -1.63778532
H   4.91442530  0.21533939  0.01945110

