40
Total Energy                               R     -1.115920233969107E+03
C   1.66889097 -0.01019774  1.36998303
C   2.40660671  0.99319788  2.26244915
C   1.12865295 -1.19979103  2.16004520
N   2.67680797 -0.52890228  0.37312031
O   3.60410553 -1.17547923  0.68391367
C   2.39871133 -0.12955505 -1.05701494
C   3.53345103  0.80966796 -1.47940936
C   2.35200784 -1.39779897 -1.90504566
C   1.07534365  0.56003537 -0.88681093
C   0.67688013  0.62578237  0.43870471
C  -0.52863108  1.20941093  0.79251757
C  -1.34887703  1.73438399 -0.20357777
C  -2.65576660  2.38356249  0.16636068
N  -2.46633095  3.81871711  0.42578617
C  -0.93534327  1.66688505 -1.53733459
C   0.27343530  1.08036970 -1.89132045
H   3.18890644  0.49231221  2.83488877
H   1.67138525  1.41065207  2.95230997
H   2.83743963  1.80416529  1.67330878
H   1.92460565 -1.66680545  2.74180766
H   0.66816122 -1.93570248  1.49995137
H   0.36959178 -0.81783917  2.84445718
H   4.48677198  0.27882683 -1.48237864
H   3.59233271  1.67863703 -0.82209817
H   3.31030088  1.14823564 -2.49251204
H   3.32076637 -1.89934799 -1.90188747
H   2.11525494 -1.09705668 -2.92684384
H   1.57767764 -2.08015625 -1.55138061
H  -0.84188922  1.24161698  1.83180891
H  -3.08445316  1.85608187  1.02720239
H  -3.36152345  2.27986094 -0.65981497
H  -1.87202811  3.92237982  1.24303393
H  -3.36298810  4.21866652  0.68387721
H  -1.57973178  2.07066681 -2.31224063
H   0.57824195  1.02242366 -2.93086751
B  -2.58629566 -1.88727764 -0.06552189
F  -1.34695360 -1.98297657 -0.73087063
F  -3.24647859 -3.13452893 -0.13043719
F  -2.37702466 -1.54166349  1.28522623
F  -3.38350974 -0.90436625 -0.68680146

