52
Total Energy                               R     -9.057029649145447E+02
C  -0.46349675 -0.95871029  0.77717626
C  -0.74516172 -1.64100748  2.11349955
C   0.25596208 -1.90859830 -0.18317030
N   0.35515022  0.25955187  0.99304369
O   1.49488485  0.21436401  1.54622946
C  -0.19474937  1.51449275  0.42380433
C  -0.28696810  2.58234779  1.51105043
C   0.67993500  1.98976047 -0.73865983
C  -1.54244548  1.02333514 -0.03916624
C  -1.69157812 -0.34291628  0.15655357
C  -2.86130009 -0.98957464 -0.21609257
C  -3.90007174 -0.25704590 -0.79081247
C  -5.19462750 -0.93826295 -1.14951634
N  -6.14247559 -0.87544692 -0.02607173
C  -3.73883832  1.11878952 -0.98346406
C  -2.56476508  1.76623043 -0.61368074
H   0.18501070 -1.99105297  2.56756196
H  -1.39247784 -2.50612760  1.95208301
H  -1.24318742 -0.95876977  2.80634001
H   1.21229731 -2.22878492  0.23897259
H   0.43847901 -1.42874153 -1.14746148
H  -0.36119433 -2.79495392 -0.34865204
H   0.70895800  2.83928416  1.87999872
H  -0.89783268  2.23870704  2.34908767
H  -0.74112100  3.48576207  1.09747972
H   1.69337645  2.20877981 -0.39211286
H   0.25627260  2.90366458 -1.16207872
H   0.73147283  1.23476953 -1.52643237
H  -2.97229538 -2.06013516 -0.06381180
H  -4.98379462 -1.96983693 -1.45769535
H  -5.65244236 -0.43386106 -2.00294833
H  -5.75477682 -1.40252925  0.75091005
H  -6.99109756 -1.36360666 -0.29487834
H  -4.54712674  1.68910212 -1.43202606
H  -2.45205327  2.83406763 -0.77394715
N   4.53254604 -0.35992629 -0.55407450
C   4.59618634  0.97458309  0.10796716
C   5.77180230 -0.57930535 -1.35072072
C   4.40754259 -1.42449202  0.48238929
C   3.34417224 -0.40795067 -1.45196634
H   5.84715703  0.20571961 -2.10153494
H   5.46957020  0.99982381  0.75758541
H   4.67700276  1.74098162 -0.66122529
H   3.68806137  1.11716834  0.69071330
H   2.45716486 -0.24484195 -0.84807632
H   3.43956103  0.37492987 -2.20242251
H   3.30368868 -1.38664242 -1.92720463
H   5.27996735 -1.38386409  1.13226859
H   3.50022534 -1.24558447  1.05678854
H   4.35489433 -2.39098116 -0.01597891
H   6.62965296 -0.54239219 -0.68140760
H   5.71137392 -1.55426868 -1.83115867

