32
Total Energy                               R     -5.395249677231909E+02
C  -0.00649771  0.42029415  1.31855756
C   1.45991558  0.64533428 -1.71023418
C   1.45991558  0.64533428  1.71023418
N  -0.27564004  1.06984916  0.00000000
O  -0.32189280  2.34489738  0.00000000
C  -0.00649771  0.42029415 -1.31855756
C  -0.91429209  1.06685291  2.36371101
C  -0.91429209  1.06685291 -2.36371101
C  -0.34404763 -1.07318194 -1.24082483
C   0.22208274 -1.73343038 -0.00000000
N  -0.15311106 -3.18092789 -0.00000000
C  -0.34404763 -1.07318194  1.24082483
H   1.70506031  1.70857650 -1.66097150
H   1.61045032  0.30728459 -2.73845567
H   2.15646208  0.10049040 -1.07202256
H   1.70506031  1.70857650  1.66097150
H   2.15646208  0.10049040  1.07202256
H   1.61045032  0.30728459  2.73845567
H  -0.64204181  2.10721225  2.54402442
H  -0.81100496  0.52094471  3.30450384
H  -1.96202347  1.02454250  2.05645379
H  -0.64204181  2.10721225 -2.54402442
H  -0.81100496  0.52094471 -3.30450384
H  -1.96202347  1.02454250 -2.05645379
H  -1.43266581 -1.19754406 -1.23443559
H  -1.43266581 -1.19754406  1.23443559
H   0.03854700 -1.55324637  2.14529670
H   0.21658771 -3.65469746 -0.82470116
H  -1.16755966 -3.30031391 -0.00000000
H   0.21658771 -3.65469746  0.82470116
H   0.03854700 -1.55324637 -2.14529670
H   1.31178281 -1.71945052 -0.00000000

