32
Total Energy                               R     -5.393337776304935E+02
C   0.39651457  1.35115595  0.01989566
C   0.68088884 -1.66918785  1.50508878
C   0.60426765  1.67778082  1.50966243
N   1.08842081  0.01406531 -0.21947377
O   2.21739583  0.02796692 -0.55014812
C   0.43218432 -1.34008096  0.02228787
C   1.09319404  2.39041878 -0.84546584
C   1.13750639 -2.35750279 -0.86266405
C  -1.05511315 -1.25979806 -0.33152381
C  -1.74061533 -0.01573289  0.20152719
N  -3.17236528 -0.03811444 -0.21801714
C  -1.08073348  1.22909018 -0.36146053
H   1.74208113 -1.58522089  1.74414550
H   0.37389630 -2.70747014  1.64121007
H   0.10449215 -1.04941696  2.18831913
H   1.65826273  1.59803635  1.77935974
H   0.00982639  1.05463643  2.17417881
H   0.28908591  2.71436755  1.63972208
H   2.11373682  2.57698885 -0.51257608
H   0.52683205  3.31812365 -0.75092306
H   1.09963284  2.09399124 -1.89599642
H   2.16793648 -2.52274075 -0.54992497
H   0.59391506 -3.29845830 -0.76454805
H   1.11727087 -2.05389621 -1.91098396
H  -1.16199701 -1.28560089 -1.42039043
H  -1.16825408  1.21966909 -1.45235466
H  -1.57248887  2.13227979  0.00633782
H  -3.64680144 -0.86316614  0.15143874
H  -3.26410498 -0.05429062 -1.23563574
H  -3.66667880  0.78555434  0.12741865
H  -1.51942618 -2.16297822  0.07016056
H  -1.75733580 -0.00265883  1.29057759

