38
Total Energy                               R     -9.548999996567529E+02
C   1.65681992 -1.52532176 -0.03840195
C   1.89609233 -2.55866614 -1.14862284
C   2.04931983 -2.11625048  1.32742846
N   2.54038307 -0.36962516 -0.33321917
O   3.76798703 -0.65316413 -0.52180106
C   2.25243798  1.03992926  0.03490159
C   2.80012422  1.30653532  1.44779295
C   2.98339131  1.92041375 -0.98686477
C   0.75765237  1.31115211  0.00700544
C  -0.20241163  0.26018688 -0.02222306
C   0.19778479 -1.10629435 -0.01477808
C  -0.75346494 -2.09709662  0.05724060
C  -2.11889976 -1.79571461  0.06920815
C  -2.51594947 -0.49057901 -0.00049622
N  -3.95609902 -0.26238820 -0.07212722
O  -4.68263951 -0.97265101  0.60415218
O  -4.37716832  0.60101933 -0.82433183
C  -1.59580374  0.59309382 -0.01648132
C  -1.98719850  1.95093004  0.05384732
C  -1.03847645  2.93306881  0.11133434
C   0.32865768  2.61396372  0.08280139
H   2.94860505 -2.83747562 -1.18075938
H   1.60497592 -2.15831572 -2.12244981
H   1.31919728 -3.46297475 -0.95778298
H   3.11685528 -2.34485443  1.33775793
H   1.49681260 -3.04167915  1.50040328
H   1.82510963 -1.42590534  2.14204117
H   3.85526919  1.02936009  1.49924051
H   2.24662388  0.74610670  2.20311789
H   2.70995323  2.37020913  1.67745265
H   4.05072697  1.70345158 -0.97703264
H   2.85914143  2.97405419 -0.73990320
H   2.59674921  1.75146843 -1.99456999
H  -0.46505551 -3.13926643  0.09781739
H  -2.85158392 -2.59245457  0.09826295
H  -3.03384594  2.21896951  0.08176044
H  -1.34074413  3.97188230  0.18361156
H   1.04533213  3.42377971  0.14215066

