36
Total Energy                               R     -9.739500148788422E+02
C   0.43422572  1.39589097 -0.02021362
C  -2.44511526 -2.08666555 -1.24977318
C   2.92619223  1.44836683 -0.15528570
N  -2.93399446 -0.02313808  0.01295191
O   3.94340395  0.98177293 -0.61035568
C   1.64981423 -0.69949258 -0.01836079
C   0.45189836 -1.40494801 -0.01207738
C   2.91091746 -1.50766907  0.01992412
C   1.64467030  0.70375642 -0.03069876
C  -0.75293080  0.68362742 -0.00561910
C  -2.46956618  2.03309540 -1.26916954
C  -2.15373315  1.23805588 -0.00217257
C  -2.45518253  2.05533952  1.25391287
O  -4.19744558 -0.03165583  0.01952815
O   2.83521846  2.71264224  0.26501262
C  -2.13785492 -1.27440140  0.00850271
C  -2.42600104 -2.08240860  1.27394611
O   3.23516169 -2.29465772 -0.83342861
O   3.59076862 -1.32719338  1.15331862
C  -0.74443180 -0.70374387 -0.00362629
H  -1.86239863  2.94141897 -1.29863428
H  -2.25863643  1.44350328 -2.16483175
H  -2.24230016 -1.50429095 -2.15195840
H   3.68572209  3.15430094  0.11809167
H   0.42760917  2.47937869 -0.04420138
H  -1.84696738  2.96343511  1.26079936
H  -1.82758174 -2.98813900 -1.27030175
H  -3.49501602 -2.38874569 -1.25346966
H   0.45916124 -2.49001992  0.00094782
H  -1.80948755 -2.98469778  1.28754051
H  -2.23490001  1.48147114  2.15749993
H   4.40387181 -1.85540968  1.12219900
H  -3.52282962  2.32328881 -1.27778751
H  -3.50804401  2.34673167  1.26909032
H  -3.47613200 -2.38302963  1.29508321
H  -2.20838228 -1.49731540  2.17093545

