50
Total Energy                               R     -1.138455450076055E+03
C   2.01482530 -0.89136573  1.30705851
C   1.02622612 -0.02424331  2.08917754
C   2.07236985 -2.30441618  1.88663678
N   1.49405357 -1.01332375 -0.10324946
O   0.42897046 -1.44297760 -0.35402641
C   2.46288449 -0.56097465 -1.14354570
C   3.21277214 -1.84591674 -1.55826551
C   1.72726254  0.04466518 -2.32090790
C   3.39579742  0.37487211 -0.32803093
N   3.05711453  1.78686251 -0.33149155
C   3.38246194 -0.23507547  1.08645368
H   0.03819935 -0.48424875  2.11284804
H   0.95210690  0.98324479  1.68304670
H   1.40568324  0.04329198  3.10993111
H   1.07215945 -2.73439357  1.96226581
H   2.49888451 -2.22798920  2.88826984
H   2.70836332 -2.95659170  1.28582743
H   2.51246736 -2.57851703 -1.96233062
H   3.76937043 -2.29177643 -0.73388888
H   3.91713623 -1.55435275 -2.33861562
H   1.11797816 -0.70567036 -2.82673976
H   2.47493826  0.41178621 -3.02650707
H   1.09206276  0.87520455 -2.01569493
H   4.39254505  0.27950131 -0.75726637
H   2.10039594  1.94416157 -0.02635263
H   3.11426084  2.14528365 -1.27865968
H   3.56145600  0.53282122  1.83746012
H   4.16907033 -0.98459977  1.17751837
N  -3.51956325 -1.20548919 -0.16876578
C  -2.59266892 -1.16339468  0.99846138
C  -4.53121692 -2.27917968  0.03777152
C  -4.20789878  0.11019654 -0.30150933
C  -2.74174763 -1.48209517 -1.41049770
H  -4.01321812 -3.23169690  0.13555562
H  -3.17427992 -0.96378932  1.89693100
H  -2.09124544 -2.12597354  1.08149865
H  -1.87039712 -0.36909393  0.83287377
H  -2.01220441 -0.68661451 -1.54689751
H  -2.24037610 -2.44210386 -1.30256713
H  -3.43064247 -1.51038539 -2.25331305
H  -4.75490714  0.31310426  0.61762246
H  -3.45903165  0.88069420 -0.47119382
H  -4.89450694  0.06078039 -1.14484803
H  -5.09089435 -2.06150208  0.94603460
H  -5.20055706 -2.30081284 -0.82045491
B  -0.99494475  2.43673137  0.14553285
F   0.23866590  3.08313484  0.38560365
F  -0.75507031  1.22228455 -0.53156055
F  -1.63338773  2.17325036  1.37304930
F  -1.81348524  3.26195485 -0.64821162

