50
Total Energy                               R     -1.138743114058109E+03
C  -0.04313557  0.55200942  1.05689635
C   0.18150885 -0.80661561  0.37814272
C   0.71325674  0.55210555  2.38768640
N   0.39847311  1.73366863  0.26406668
O   1.53638653  1.49585506 -0.53596534
C  -0.76015852  2.27464983 -0.47230894
C  -0.49065355  3.72185365 -0.87002317
C  -1.17315078  1.49106126 -1.72746880
C  -1.83106862  2.17899426  0.63515739
N  -3.23177423  2.32666315  0.24946691
C  -1.55122668  0.81591056  1.26466397
H   1.24503103 -1.03532894  0.27903485
H  -0.26592159 -0.85638907 -0.61588651
H  -0.27254646 -1.59442030  0.98744044
H   1.79450957  0.52202437  2.22009103
H   0.44360944 -0.31788815  2.99652846
H   0.48406442  1.45395597  2.96387065
H   0.28168573  3.78371481 -1.64313511
H  -0.15929404  4.30966086 -0.00849920
H  -1.39568440  4.18881068 -1.27409700
H  -0.31083471  1.33908860 -2.38142976
H  -1.92245320  2.04870045 -2.29771165
H  -1.60045436  0.51276252 -1.50050676
H  -1.61340015  2.96900472  1.36079580
H  -3.47469862  1.58824086 -0.40482599
H  -3.34961673  3.19941827 -0.25653129
H  -2.14119919  0.05516436  0.74578205
H  -1.84144538  0.78204124  2.31840201
N   4.92380311 -0.99170382 -0.21136190
C   4.23586529 -0.54141279  1.03244230
C   6.20920637 -0.25258040 -0.36282496
C   5.19763990 -2.45416319 -0.12420970
C   4.05220136 -0.72014096 -1.39034423
H   5.99466275  0.81351392 -0.41138759
H   4.89648950 -0.71839056  1.87966965
H   4.01050158  0.51951316  0.94267659
H   3.31762382 -1.11297774  1.14780155
H   3.10678796 -1.24178918 -1.25403995
H   3.88243741  0.35220514 -1.46112447
H   4.55721596 -1.08166775 -2.28466970
H   5.82232751 -2.64121719  0.74755700
H   4.25008625 -2.98131902 -0.02696930
H   5.71245698 -2.76801003 -1.03074731
H   6.84163458 -0.47007618  0.49623750
H   6.69492639 -0.58068102 -1.28015225
B  -3.90996080 -2.08074972 -0.23433071
F  -3.06747073 -2.61134270  0.76448598
F  -3.12753517 -1.54500466 -1.27747629
F  -4.73372882 -3.10653649 -0.74630113
F  -4.71626675 -1.06502525  0.31964087

