50
Total Energy                               R     -1.138636679144245E+03
C  -0.08389958  0.43205587  1.38036816
C  -1.04800964 -0.70361092  1.71959473
C   1.25873660  0.20238011  2.07145963
N   0.10583695  0.48775240 -0.08859236
O   0.67644149 -0.45219467 -0.72639255
C  -0.16159118  1.80881652 -0.69633062
C   1.14619395  2.60821046 -0.75789374
C  -0.73681617  1.64276498 -2.09356820
C  -1.13255659  2.42993477  0.34182791
N  -2.55851042  2.19682131  0.12178809
C  -0.66043492  1.82900373  1.67642658
H  -0.65407167 -1.66183215  1.37082195
H  -2.02865814 -0.54854034  1.26896486
H  -1.17676722 -0.76072352  2.80336000
H   1.67682359 -0.77068505  1.80386843
H   1.11543637  0.22387488  3.15500636
H   1.97777544  0.98146259  1.80761507
H   1.87830341  2.09490482 -1.38598077
H   1.58217705  2.75463786  0.23321386
H   0.95215114  3.59079963 -1.19576019
H   0.01352893  1.22819010 -2.77035295
H  -1.03664824  2.61957180 -2.48257706
H  -1.60778976  0.98566261 -2.10150880
H  -0.98623199  3.51119200  0.34626396
H  -2.74671645  1.20278590  0.02580259
H  -2.82821854  2.61038762 -0.76477695
H  -1.48039681  1.77754504  2.39381604
H   0.11680020  2.46193449  2.10934685
N   4.67130863 -0.95585985 -0.24997225
C   3.75210243 -2.12342929 -0.37342506
C   5.05141044 -0.77233496  1.17986700
C   5.89379612 -1.19986469 -1.06574372
C   3.98351007  0.27355057 -0.73764081
H   4.14766158 -0.59356002  1.76031156
H   4.27323077 -3.01432447 -0.02698484
H   2.87052415 -1.94249942  0.23752401
H   3.46832543 -2.23602669 -1.41817332
H   3.68981514  0.12329830 -1.77489226
H   3.10676487  0.44528398 -0.11980926
H   4.67153955  1.11358056 -0.65700826
H   6.38526014 -2.09941175 -0.69941386
H   5.59953956 -1.32934444 -2.10581416
H   6.55743789 -0.34270346 -0.96750637
H   5.55100682 -1.67484165  1.52796192
H   5.72184972  0.08224540  1.25523382
B  -4.27726815 -1.41367770 -0.29594001
F  -5.44027093 -1.75152662 -1.01735194
F  -4.62737737 -0.63381186  0.82555390
F  -3.62765827 -2.58934158  0.13071697
F  -3.40922004 -0.67118424 -1.12668861

