30
Total Energy                               R     -3.170370680987007E+03
C  -1.56280601  1.36034510 -0.00747592
C  -1.67695205  2.12762701  1.31127699
C  -1.57019806  2.31178322 -1.20078214
N  -2.67867935  0.38831586 -0.12239803
O  -3.89078958  0.75893902 -0.11376207
C  -2.29580572 -1.04144601 -0.00762385
C  -2.82100589 -1.61384220  1.31058382
C  -2.83334898 -1.82536653 -1.20192215
C  -0.79450116 -0.91372212 -0.01252769
C  -0.38979930  0.41425903 -0.01312932
C   0.95483645  0.75496189 -0.00912359
C   1.88080188 -0.28032314 -0.00411185
Br   3.74070569  0.14561011  0.00024005
C   1.49615895 -1.61767689 -0.00300170
C   0.14196944 -1.93663130 -0.00717701
H  -2.59214472  2.72423507  1.32398141
H  -0.82430223  2.80267579  1.41607345
H  -1.68731332  1.44388472  2.16331536
H  -2.49065576  2.90020189 -1.21092232
H  -1.48907917  1.76344458 -2.14208481
H  -0.72580264  3.00085555 -1.12521381
H  -3.91347978 -1.60034482  1.32174927
H  -2.45066812 -1.03888050  2.16255440
H  -2.48837070 -2.64902503  1.41760349
H  -3.92557226 -1.80015542 -1.21277190
H  -2.51677926 -2.86829607 -1.12710124
H  -2.45943600 -1.41481310 -2.14264445
H   1.26775531  1.79309844 -0.00983715
H   2.23935855 -2.40617291  0.00038852
H  -0.16723443 -2.97659342 -0.00652292

