30
Total Energy                               R     -3.170482396719865E+03
C  -1.59008804  1.32682764  0.05596497
C  -1.47197035  2.45463141  1.08115714
C  -1.77508138  1.95153465 -1.33717168
N  -2.65386350  0.37651113  0.48472763
O  -3.94997125  0.77166592  0.10925335
C  -2.29841256 -1.00276691  0.04630316
C  -2.82593449 -2.01189267  1.06666629
C  -2.80803790 -1.41025562 -1.34665273
C  -0.79319437 -0.91538419  0.04606650
C  -0.38936605  0.41398363  0.05549598
C   0.95536022  0.75500203  0.03761000
C   1.88334091 -0.28056230  0.00773134
Br   3.74615756  0.14874125 -0.01389515
C   1.50164862 -1.61743802 -0.00395358
C   0.14484593 -1.93644173  0.01599232
H  -2.41192701  3.01237852  1.13368705
H  -0.68142699  3.15948002  0.80569325
H  -1.24990685  2.05908986  2.07581918
H  -2.67202967  2.57442143 -1.36555154
H  -1.85308524  1.20236584 -2.12613108
H  -0.91608118  2.58910763 -1.56732265
H  -3.91761033 -1.95721944  1.11901276
H  -2.42274052 -1.81032514  2.06262018
H  -2.55703180 -3.03504535  0.78639758
H  -3.90029238 -1.41430903 -1.37011704
H  -2.46168621 -2.42145429 -1.58053846
H  -2.45115325 -0.74651038 -2.13536454
H   1.27176604  1.79249933  0.04704193
H   2.24638217 -2.40456055 -0.02595327
H  -0.16054021 -2.97819492  0.00865822

