42
Total Energy                               R     -1.127670856561907E+03
C  -2.53085326 -1.24180263 -0.17768830
C  -3.06534359 -1.79852625  1.16236838
C  -2.96078923 -2.20820686 -1.29711477
N  -3.04389248  0.08883556 -0.57243198
O  -4.45626268  0.08397488 -0.53754664
C  -2.51418027  1.26109501  0.15986109
C  -3.09365321  2.50274750 -0.53402835
C  -2.87399683  1.34396874  1.66312510
C  -0.99563328  1.25221186  0.05191583
C  -0.28753570  0.01398752 -0.04027624
C  -1.01061321 -1.21266799 -0.10917159
C  -0.31586894 -2.39972815 -0.09049633
C   1.07654443 -2.42170089  0.02561392
C   1.80642828 -1.25801179  0.07773084
C   3.24546583 -1.43880685  0.40092278
O   3.93885306 -2.33777738 -0.02865361
O   3.69516057 -0.56190929  1.30534032
C   1.14426493  0.00267880 -0.02665409
C   1.82496907  1.25950926 -0.10085452
C   3.26052994  1.42744971 -0.44151103
O   3.97071786  2.31660925 -0.01843956
O   3.68790997  0.54848204 -1.35518138
C   1.11390670  2.42726903  0.01524891
C  -0.28259170  2.42283372  0.12861072
H  -4.14963609 -1.68924152  1.21100429
H  -2.62692362 -1.30577394  2.02944980
H  -2.83058349 -2.86345249  1.23851388
H  -4.04730114 -2.20955544 -1.38333203
H  -2.64705783 -3.23329619 -1.09543319
H  -2.53806313 -1.90022537 -2.25739625
H  -4.18101187  2.47617437 -0.48147296
H  -2.28068016  0.66104815  2.27199107
H  -2.79965892  2.53672707 -1.58697571
H  -3.93237611  1.11649855  1.81299937
H  -2.76766150  3.42599395 -0.05355905
H  -2.68794023  2.35546430  2.03436332
H  -0.84044213 -3.34619216 -0.12407180
H   1.58592252 -3.37467588  0.11422574
H   4.63449671 -0.72262751  1.47401250
H   4.62638644  0.70003953 -1.53629379
H   1.63749408  3.37576676 -0.02672049
H  -0.78504601  3.37464442  0.23595201

