42
Total Energy                               R     -1.127362177736839E+03
C  -1.00403126  1.26203238  0.07095869
C  -2.72549200 -1.81600881 -1.74707650
C  -0.32020993  2.43996345 -0.03704656
N  -3.10636883  0.12504440 -0.31832563
O  -4.11845482  0.30003362 -0.89140738
C  -2.51049310 -1.26249060 -0.33259509
C  -3.23644692  2.53194601  0.10122146
C  -3.33903166 -2.07000131  0.68712084
C  -2.48015052  1.26289906  0.44290911
C  -0.30966351  0.01960501  0.01491305
C   1.07504691  2.42879038 -0.21479308
C   1.78280573  1.25511745 -0.20179986
C   3.21181371  1.31651561 -0.61906664
C   1.77177936 -1.24095726  0.19058334
C   3.21081133 -1.32047518  0.56631416
O   3.71150091  0.54663756 -1.41365264
O   3.83804787 -2.36710889  0.03634991
C   1.11023547  0.00914696 -0.00011082
C  -0.34890394 -2.39471713  0.08220656
C   1.04629334 -2.40555670  0.22902632
O   3.74706155 -0.55134051  1.33757201
O   3.87099062  2.34764908 -0.09856397
C  -1.02609451 -1.20805699 -0.01557003
C  -2.63902564  0.92977513  1.94299370
H  -2.21629457 -1.19813985 -2.48880468
H  -2.30505487 -2.82024986 -1.77811535
H  -0.87378199 -3.34182679  0.04776267
H  -3.78715004 -1.87984742 -1.98243045
H  -0.82717423  3.39420210  0.00690012
H  -3.14361740  2.78922223 -0.95505928
H  -4.29069976  2.42571943  0.35603152
H  -2.83766949  3.34637712  0.70387138
H  -3.68950920  0.77176128  2.19190430
H  -4.39999968 -1.98389772  0.44864767
H  -3.16211399 -1.75252055  1.71253827
H  -3.05022875 -3.11586319  0.58756312
H   1.58749046  3.36816197 -0.38228815
H   4.76399523  2.38160200 -0.47163949
H   1.54894016 -3.35150307  0.38867570
H   4.74076411 -2.41317881  0.38387148
H  -2.27363645  1.80355757  2.48423968
H  -2.04830400  0.06898122  2.25109562

