35
Total Energy                               R     -6.914598166846315E+02
C  -2.46756669 -0.15763217 -0.34779201
C  -0.76368846 -1.88154898 -0.15432352
C  -2.09642866 -1.50435886 -0.28933238
N  -4.50931805  0.36844619  0.89800216
O   3.35663713  0.67123362  0.10726922
C  -1.47912588  0.82432715 -0.27102657
C  -3.92229193  0.22105486 -0.44319491
C   1.06378294  2.15701419  1.26169877
C  -0.15058786  0.44835487 -0.13977522
C   0.20634616 -0.89256389 -0.07995062
C   1.69488400 -1.07185292  0.07197604
C   2.31955340 -1.88669043 -1.05778047
C   2.07119229 -1.64816505  1.43840598
N   2.13798074  0.34199104 -0.01556435
C   1.05118745  1.35283970 -0.03969269
C   1.21456323  2.26691073 -1.25155027
H  -2.86592137 -2.26860796 -0.35424471
H  -0.49104948 -2.93153786 -0.11225670
H   2.05522080 -1.47325360 -2.03387644
H  -4.44962691 -0.52810858 -1.04679648
H   1.64006304 -1.05261930  2.24664124
H   1.69377827 -2.67027880  1.52003804
H  -5.49246018  0.59937500  0.79384214
H  -4.01992503  1.17826763 -0.95944079
H  -1.75319629  1.87501448 -0.31668749
H  -4.48546614 -0.53602543  1.35977541
H   0.22760551  2.86028804  1.26418514
H   0.96803295  1.49983487  2.12928929
H   1.95910595 -2.91688096 -1.00773097
H   3.40793471 -1.90100717 -0.96172010
H   3.15726135 -1.67213327  1.55662644
H   1.20981421  1.69247889 -2.18084164
H   2.15107501  2.82591711 -1.18500475
H   1.99237551  2.72630237  1.34923928
H   0.39072222  2.98390980 -1.28222817

