35
Total Energy                               R     -6.915716917430611E+02
C  -1.05943661  1.32008153 -0.01754208
C  -2.08603626 -2.02579215 -1.22084063
C  -1.40809840  1.91157427  1.35915241
N  -2.04689537  0.35019374 -0.57159444
O  -3.38696869  0.68938105 -0.31078622
C   1.49274039  0.81072744  0.25257795
C  -0.87346848  2.47411110 -1.00339891
C   3.93480984  0.20421964  0.46649485
C   0.16508382  0.44352404  0.08573762
C  -0.19679178 -0.89673456  0.02116461
C  -1.69108091 -1.02807320 -0.13163589
C   0.76682141 -1.88999549  0.12610648
C  -2.32409636 -1.48318377  1.19444072
N   4.61975875  0.36333058 -0.82461868
C   2.10033068 -1.52134965  0.29442569
C   2.47700593 -0.17672102  0.35743308
H  -1.81756547  3.01129330 -1.13750642
H  -3.16816002 -1.99845269 -1.38268386
H  -1.59081046 -1.79020074 -2.16674983
H  -2.32959997  2.49682047  1.30680888
H  -1.53284255  1.14525498  2.12564896
H  -3.41252228 -1.52872639  1.10893471
H  -0.13185806  3.19113053 -0.63753895
H  -0.54450468  2.10715733 -1.97937365
H   4.12412856  1.06399291 -1.36788696
H   1.77557007  1.85997647  0.30293532
H   4.03052369  1.14445942  1.01418184
H  -0.60338664  2.57828656  1.68369323
H  -1.96396450 -2.48572203  1.44479574
H  -1.81760034 -3.04829705 -0.93738091
H  -2.07418817 -0.82365959  2.02680330
H   4.52682251 -0.50264941 -1.34726202
H   0.49179943 -2.94008749  0.08126436
H   2.86446522 -2.29007718  0.37707061
H   4.47269989 -0.55454730  1.03933191

