35
Total Energy                               R     -6.912687374648763E+02
C  -0.85225932  1.37560337  0.01415511
C  -0.84007493  2.32274296 -1.18223970
C  -2.39631369 -1.46726909  1.31767280
N  -2.08132730  0.50378943 -0.08199119
O  -3.16422239  0.94023895 -0.18831576
C   1.59093816  0.55057404  0.01069703
C   3.95916143 -0.37622296  0.01546646
C  -0.95154917  2.12753637  1.34632881
C   0.22103973  0.32375741 -0.00185983
C  -0.29606651 -0.95932327 -0.01514241
C  -1.79805191 -0.97805093 -0.00679022
C   0.55491814 -2.05685198 -0.01994597
C  -2.44312222 -1.65353004 -1.21349193
N   4.39777503  1.01645432  0.03340982
C   1.92363442 -1.83375105 -0.01171042
C   2.45764072 -0.53782240  0.00757387
H  -1.69988894  2.99339809 -1.15243411
H  -3.52756194 -1.53845827 -1.18582788
H  -0.83166352  1.76992069 -2.12279931
H  -1.81486977  2.79486283  1.34365860
H  -1.96846753 -0.93118703  2.16629003
H  -3.48125439 -1.35087920  1.31188937
H   0.07201699  2.91803864 -1.11632521
H   1.97419419  1.56436797  0.02753873
H   4.17478228  1.45143138 -0.85656460
H  -0.04155897  2.72085228  1.44901344
H   5.40883749  1.02980735  0.10439991
H  -1.01821359  1.43529840  2.18718125
H  -2.04973948 -1.25094786 -2.14803514
H  -2.20184457 -2.71633687 -1.15857940
H  -2.15058332 -2.52649762  1.40910573
H   4.36245515 -0.93658845 -0.83864177
H   0.15907725 -3.06686835 -0.02986438
H   2.60097868 -2.68290831 -0.01853648
H   4.35257990 -0.86527823  0.91084526

