54
Total Energy                               R     -1.310981660132820E+03
C  -0.28556823  1.20346795 -1.69748532
C  -0.05807530 -0.07064463 -2.49528374
C  -1.51694960  1.95304372 -2.23936857
N  -0.63493266  0.78646825 -0.27403422
O  -1.05836454 -0.29827694 -0.10229178
C  -0.51441773  1.70308236  0.93215670
C  -1.70509704  2.68030215  0.89512263
C  -0.62539311  0.85068172  2.18920617
C   0.82599705  2.46502199  0.82420241
C   2.02746609  1.60356590  1.15855157
O   2.97349783  1.99538513  1.80810662
O   1.95829295  0.39597996  0.61850586
C   1.03040694  3.10538412 -0.55897799
C   0.97528650  2.08205705 -1.68364953
H  -0.97778227 -0.64098657 -2.62895512
H   0.69840439 -0.70257126 -2.02587858
H   0.30569546  0.22965527 -3.47939500
H  -2.43831744  1.40493225 -2.03570241
H  -1.38338375  2.00999157 -3.32083332
H  -1.60141377  2.96693412 -1.85553251
H  -2.64035379  2.14541673  0.72752896
H  -1.60252425  3.46741069  0.15428633
H  -1.74771734  3.14419097  1.88140756
H  -1.64001694  0.47272492  2.31848664
H  -0.39248195  1.49838530  3.03627274
H   0.06652688  0.00933314  2.19144387
H   0.78373344  3.25023958  1.58023975
H   2.77341241 -0.12377580  0.78381024
H   1.99941730  3.60812375 -0.57691657
H   0.27738773  3.88209774 -0.70140318
H   1.84811369  1.42842204 -1.64659553
H   1.00033822  2.59057566 -2.64959998
N  -4.62653749 -1.65138976  0.24661775
C  -4.20936077 -0.22300594  0.16429261
C  -5.40691536 -1.86506862  1.49850433
C  -5.47249967 -1.99213506 -0.93228118
C  -3.41601981 -2.52224450  0.26014600
H  -4.77763759 -1.61005138  2.34941751
H  -5.09990658  0.40293236  0.15497394
H  -3.59798435  0.00739220  1.03455132
H  -3.64032635 -0.07824694 -0.75217485
H  -2.85937737 -2.36225087 -0.66140237
H  -2.80585477 -2.25823068  1.12203771
H  -3.73595036 -3.56051947  0.33022707
H  -6.35196394 -1.35047614 -0.92845662
H  -4.89124691 -1.82765844 -1.83787625
H  -5.76882240 -3.03705726 -0.85989827
H  -6.28621637 -1.22344541  1.47592971
H  -5.70522297 -2.91055828  1.55139625
B   4.29993453 -2.14696391 -0.08731888
F   5.52068877 -1.99792465 -0.75839288
F   4.25290022 -3.38137832  0.57483900
F   4.17914019 -1.09851457  0.88576938
F   3.22966196 -2.03656179 -0.98980012

