54
Total Energy                               R     -1.311174050276208E+03
C  -2.45969300  0.25464022  1.49711611
C  -1.51697405  1.05708944  2.39428246
C  -3.91396575  0.62527057  1.81943720
N  -2.16839976  0.62405742  0.07751745
O  -2.07250459  1.87268148 -0.16833499
C  -2.46556866 -0.24507488 -1.09801216
C  -3.94438827 -0.07648952 -1.48284774
C  -1.60640646  0.21588888 -2.27851675
C  -2.19201370 -1.73439644 -0.76976711
C  -0.74101434 -2.13589531 -0.94008778
O  -0.37670231 -3.00406937 -1.71252948
O   0.10786817 -1.47460672 -0.16859323
C  -2.72953277 -2.13636843  0.61190724
C  -2.20606170 -1.24138909  1.72451619
H  -1.73633970  2.12529504  2.36865836
H  -0.47391844  0.90407954  2.10681145
H  -1.63970413  0.71075639  3.42364926
H  -4.12480045  1.65527726  1.52214018
H  -4.07190870  0.54238294  2.89778552
H  -4.62977034 -0.03303125  1.32499774
H  -4.18478721  0.98491868 -1.57474545
H  -4.62428034 -0.52397379 -0.75809711
H  -4.11978961 -0.55248333 -2.45052005
H  -1.92477830  1.19381667 -2.63903610
H  -1.72588202 -0.49880874 -3.09674369
H  -0.54717788  0.27336430 -2.02307207
H  -2.72366006 -2.31176778 -1.52797802
H   1.03051982 -1.74793284 -0.34559980
H  -2.46485291 -3.17713565  0.81672106
H  -3.82115461 -2.10026049  0.57349154
H  -1.13558814 -1.40456802  1.85722730
H  -2.68369580 -1.51314575  2.66986126
N   1.66082170  2.73499858 -0.36120944
C   3.11927604  3.00814451 -0.49814656
C   1.11812790  3.48133669  0.80912925
C   0.95159992  3.16844662 -1.59880286
C   1.44395094  1.27521793 -0.15591239
H   1.63001728  3.14096405  1.70769292
H   3.26214652  4.07597060 -0.65596048
H   3.62132489  2.69175034  0.41436802
H   3.50048626  2.44766882 -1.35011492
H   1.83572161  0.74133299 -1.01889972
H   1.96424655  0.96787978  0.74824538
H   0.37797262  1.09935584 -0.05560970
H   1.11642028  4.23547592 -1.73987726
H   1.35215844  2.61114568 -2.44401353
H  -0.11074554  2.96206509 -1.48128294
H   1.29257838  4.54519146  0.65689841
H   0.05101614  3.28123137  0.88524216
B   3.69127919 -1.53296502  0.43515575
F   4.58923666 -2.58324215  0.67817782
F   4.38232688 -0.40277328 -0.02722150
F   2.75960486 -1.94939776 -0.56927289
F   2.97900593 -1.22302596  1.60584061

