33
Total Energy                               R     -8.700478880607282E+02
C  -1.47628125 -1.39379795  0.05291532
C  -0.46678430 -2.39179557 -0.49855112
C  -1.49222033 -1.44005189  1.57681974
C  -2.86257172 -1.66241055 -0.55396005
N  -1.04735759 -0.00253773 -0.45380673
O  -0.25866532  0.01388335 -1.32777281
C  -1.53130378  1.37312886  0.05260950
C  -0.70359359  1.67252127  1.31181257
C  -1.19943188  2.38038244 -1.04163049
C  -3.02847166  1.37188733  0.33625195
H  -0.73397700 -3.36977659 -0.09574494
H   0.54813179 -2.15161963 -0.18073890
H  -0.49988234 -2.45241142 -1.58666461
H  -1.76715931 -2.46103407  1.84859311
H  -2.22651926 -0.77557077  2.02641680
H  -0.50479902 -1.23283132  1.99003365
H  -3.05513246 -2.72789382 -0.41358778
H  -2.87625580 -1.45422700 -1.62552379
H  -3.65748518 -1.10839359 -0.06176770
H   0.36327865  1.56275116  1.11827630
H  -0.98805295  1.05672145  2.16164188
H  -0.90290899  2.71569148  1.56547398
H  -0.12642848  2.47934327 -1.20203314
H  -1.58476759  3.34697628 -0.71442439
H  -1.68335553  2.12021516 -1.98538860
H  -3.32004328  0.70627964  1.14542811
H  -3.60574916  1.14165306 -0.55986206
H  -3.27978617  2.38790869  0.64658158
B   2.82566993  0.01597513  0.05536096
F   2.79873395 -0.82559545 -1.07541389
F   1.90596977 -0.45490913  1.01602447
F   4.12229154  0.01714679  0.61068556
F   2.47715133  1.32823068 -0.32599494

