28
Total Energy                               R     -4.455792987888256E+02
C  -1.35266258  0.10738517 -0.01437193
C  -1.59606526  1.18651740 -1.07744752
C   1.36149428  1.59840085 -0.33723477
C   2.31277456 -0.59458873 -0.97168917
N  -0.00211684 -0.54074814 -0.19088355
O   0.03136217 -1.81846631 -0.12768224
C   1.34511967  0.10720134 -0.01211536
C  -1.47958466  0.68723231  1.39873032
C  -2.41925588 -0.97443598 -0.19502191
C   1.80064279 -0.11561113  1.43572077
H  -2.66125803  1.43042162 -1.08361159
H  -3.39929997 -0.50198896 -0.09840784
H  -2.36201723 -1.43685197 -1.18311583
H  -1.05667987  2.11113940 -0.88596159
H   0.72676694  2.19220514  0.31974510
H  -2.49372163  1.07356172  1.53241342
H  -1.33067837  0.82454374 -2.07397715
H   1.97019917 -0.50557497 -2.00633157
H   1.08546408  1.79202751 -1.37508063
H  -1.30813944 -0.08551944  2.15250207
H  -0.78733311  1.50992955  1.57977229
H   1.18063790  0.43625025  2.14476041
H  -2.34577119 -1.75694474  0.56037610
H   1.76929329 -1.17632482  1.69455872
H   2.43129242 -1.65146358 -0.73283908
H   2.38591612  1.95193663 -0.19731280
H   3.29321235 -0.11827245 -0.89711423
H   2.83125949  0.23128547  1.54784429

