28
Total Energy                               R     -4.456839457398449E+02
C   1.30060136  0.10480196 -0.04125890
C   2.37936054 -0.51829207 -0.94518939
C  -1.60315608  1.43677107 -0.73191740
C   1.37807132  1.61901518 -0.25794013
N  -0.00309036 -0.48911850 -0.48372688
O   0.02237646 -1.87332157 -0.14681084
C  -1.30485054  0.10152506 -0.02739082
C  -2.42123942 -0.85399485 -0.48297243
C  -1.44215796  0.29551023  1.49094666
C   1.69491906 -0.17885938  1.42211276
H   1.07072891  1.90451143 -1.26759705
H  -2.32806297 -1.08743785 -1.54842022
H   2.15329358 -0.33192679 -2.00001301
H  -1.43512907  1.35684528 -1.81019449
H  -1.02027919  2.27474915 -0.35735398
H  -2.65580609  1.69441434 -0.57975344
H   2.41608108  1.93926743 -0.12603971
H   3.35819012 -0.07929412 -0.72829281
H   0.78088874  2.17828426  0.46371899
H  -2.41987936 -1.79205653  0.07128112
H  -3.39365700 -0.37609375 -0.32929391
H  -2.48385747  0.51108787  1.75200304
H   2.45906905 -1.59699909 -0.79941068
H  -1.14481694 -0.60753881  2.03151820
H   1.56331133 -1.23300717  1.67230942
H  -0.83792744  1.13054451  1.85280102
H   2.75068747  0.07012462  1.57163711
H   1.12049646  0.41606416  2.13333314

