28
Total Energy                               R     -4.453981042876765E+02
C   1.38249815 -0.10951730  0.00057511
C   2.39280140  0.95039617  0.42017017
C   1.42142933 -1.29004414  0.96397968
C   1.64033141 -0.53620056 -1.45273101
N   0.00000947  0.57242484 -0.00002790
O   0.00000843  1.75036802 -0.00003212
C  -1.38249030 -0.10951007 -0.00059278
C  -1.64037940 -0.53589881  1.45279628
C  -2.39275913  0.95034675 -0.42042605
C  -1.42144019 -1.29024047 -0.96373451
H   2.46494597  1.76311716 -0.30246685
H   2.15737514  1.36177165  1.40392472
H  -2.15724564  1.36158152 -1.40421874
H   3.36517773  0.45965794  0.47767245
H   2.44229376 -1.67520161  0.93105240
H   1.21184744 -0.97738624  1.98767020
H   2.69648077 -0.80698246 -1.50816802
H   1.46380416  0.28809066 -2.14617751
H   1.05291666 -1.40035412 -1.75208730
H  -1.46381968  0.28851230  2.14609163
H   0.75926300 -2.10575150  0.68308707
H  -1.05301255 -1.40002803  1.75232219
H  -2.46496474  1.76316880  0.30208967
H  -2.69654467 -0.80661316  1.50826125
H  -3.36513226  0.45960386 -0.47794260
H  -0.75927549 -2.10589437 -0.68268134
H  -1.21188559 -0.97781255 -1.98750072
H  -2.44230540 -1.67538727 -0.93069762

