49
Total Energy                               R     -8.866195275368311E+02
C   1.38143732 -1.14969508  1.21921842
C   0.59760593 -1.60884833  2.45347353
C   2.77270592 -1.79556693  1.34426185
N   0.63300040 -1.61594916  0.00824408
O  -0.69788419 -1.15894537  0.13587412
C   1.16862262 -1.08415865 -1.28635541
C   2.49823493 -1.74693765 -1.68881642
C   0.16651984 -1.44999195 -2.38698194
C   1.31703460  0.45160724 -1.26228366
C   2.10588723  0.94346490 -0.04020922
C   2.17449981  2.44631249 -0.00233400
O   3.19226015  3.10169750 -0.03333214
O   0.96904959  3.03121081  0.07593212
C   1.48508144  0.38723487  1.24985968
H   0.50774487 -2.70148576  2.46292332
H  -0.40483317 -1.18646490  2.46242334
H   1.12238482 -1.30700200  3.36630235
H   2.72594693 -2.86042492  1.09751056
H   3.11911767 -1.71062570  2.37896289
H   3.54219622 -1.34097878  0.72305226
H   2.46974576 -2.82160966 -1.48614224
H   3.37535163 -1.33396693 -1.19389392
H   2.65764959 -1.61625708 -2.76370792
H   0.04954805 -2.53809016 -2.45218547
H   0.52796180 -1.09252256 -3.35733440
H  -0.81115836 -1.01563052 -2.18721484
H   0.32173767  0.89858138 -1.24234834
H   1.80795071  0.78659327 -2.18372372
H   3.14596884  0.61957818 -0.11736028
H   1.09480680  3.99151815  0.10017281
H   0.47612706  0.79146204  1.36144603
H   2.07397143  0.70453793  2.11852042
N  -3.59191930  0.30580290  0.04148213
C  -2.55138543  1.19518441 -0.55377952
C  -4.92397357  0.96112695 -0.01597451
C  -3.61826801 -0.97944421 -0.71789680
C  -3.21845678  0.01916366  1.45749802
H  -4.88194853  1.89499070  0.54294752
H  -2.80942321  1.38329376 -1.59570963
H  -2.53557286  2.13162389  0.00323792
H  -1.60067747  0.66016926 -0.46558002
H  -2.23522718 -0.45751779  1.44019520
H  -3.18989948  0.96014908  2.00627341
H  -3.97048783 -0.64108014  1.88848241
H  -3.87440427 -0.76264545 -1.75470573
H  -2.62050448 -1.42190412 -0.63850105
H  -4.37532282 -1.62633616 -0.27506735
H  -5.17265344  1.15994381 -1.05756210
H  -5.66434398  0.29471131  0.42463018

