49
Total Energy                               R     -8.865299054082357E+02
C   0.83471568  1.36720855 -0.38282008
C   0.55415151  2.41342520 -1.46208367
C   0.16645531  1.79882059  0.92878403
N   0.24393624  0.07382189 -0.83678104
O  -0.95903290  0.12256454 -1.25247826
C   0.75820971 -1.27778922 -0.46673601
C   0.06427606 -1.75311834  0.81605887
C   0.41952322 -2.23694646 -1.60832756
C   2.28200137 -1.23878017 -0.29727104
C   2.75189237 -0.04221515  0.52932306
C   4.23762607 -0.08906449  0.77936454
O   4.75480211 -0.11868983  1.87110325
O   4.95816390 -0.09243902 -0.34967671
C   2.35320237  1.23079950 -0.21761952
H  -0.51317132  2.61880441 -1.55187184
H   0.92918331  2.08173076 -2.43400613
H   1.06294156  3.34434908 -1.19798598
H  -0.91571379  1.86532235  0.79722871
H   0.53386107  2.78865095  1.21289397
H   0.37453791  1.11322531  1.75232323
H  -1.01807634 -1.77432484  0.67630626
H   0.28944474 -1.11918533  1.67540897
H   0.39411876 -2.76888646  1.05019272
H  -0.65794802 -2.37099296 -1.71134188
H   0.86903374 -3.21167076 -1.40040898
H   0.81847981 -1.87088588 -2.55807389
H   2.75170400 -1.19018410 -1.28417189
H   2.59090686 -2.18120847  0.16337737
H   2.29259203 -0.06018231  1.51923017
H   5.89979270 -0.11957931 -0.12042965
H   2.82249020  1.21983842 -1.20595231
H   2.71331041  2.12244913  0.30309869
N  -4.17557037 -0.03154666  0.37908769
C  -3.29100120 -0.00911236  1.57901211
C  -3.84157910 -1.21649606 -0.46426139
C  -5.59822747 -0.11398330  0.81442822
C  -3.96568563  1.21575891 -0.41244075
H  -2.80427237 -1.13172796 -0.78519460
H  -3.44105136 -0.92849477  2.14276731
H  -2.25821268  0.06510311  1.24814845
H  -3.55256295  0.85469284  2.18834081
H  -4.21096634  2.07090202  0.21548036
H  -2.92318165  1.25616006 -0.72527519
H  -4.62092521  1.18899342 -1.28194850
H  -5.73559309 -1.02853715  1.38915294
H  -5.82585871  0.75508181  1.42947704
H  -6.23472700 -0.12617988 -0.06862428
H  -3.98820336 -2.11739625  0.12939535
H  -4.50532033 -1.22432268 -1.32773505

