58
Total Energy                               R     -1.612837206726740E+03
C   0.46821527 -1.21470827 -0.05030057
C   1.58941985 -1.76466315 -0.94045709
C   0.05234153 -2.23152684  1.01025848
N   0.95755538  0.01132076  0.62727866
O   1.93775458 -0.02231393  1.42686781
C   0.46902505  1.28915463  0.05687173
C   1.58986605  1.92198404 -0.77627070
C   0.04235487  2.21154418  1.19681947
C  -0.68676577  0.76889343 -0.77460629
C  -0.69150888 -0.62690822 -0.83259078
C  -1.73021254 -1.29488821 -1.48350546
C  -1.79889362 -2.78029680 -1.61344658
O  -0.88200824 -3.49337475 -1.95700804
O  -3.01759687 -3.25174489 -1.34929757
C  -2.76188403 -0.55556626 -2.06082801
C  -2.75430317  0.82650666 -2.00567114
C  -1.71476205  1.49974716 -1.36811178
C  -1.76540836  2.99288561 -1.36348881
O  -0.89058423  3.71663190 -1.78426616
O  -2.91591324  3.45259967 -0.87430343
H   2.46765980 -1.97972820 -0.32683575
H   1.86849291 -1.04691694 -1.71456228
H   1.26612325 -2.68642680 -1.42036502
H   0.90770101 -2.46109926  1.64955890
H  -0.26981915 -3.16343990  0.54481826
H  -0.75879436 -1.84501029  1.62878831
H   2.46510802  2.08587168 -0.14270670
H   1.26406247  2.88283721 -1.17160221
H   1.87488525  1.27945647 -1.61160872
H   0.89074508  2.38637388  1.86208876
H  -0.77486779  1.77397264  1.77212213
H  -0.27593642  3.18108358  0.81068346
H  -3.03491724 -4.20762728 -1.50311131
H  -3.57610215 -1.06554635 -2.56087629
H  -3.56297366  1.38621446 -2.46067284
H  -2.93234375  4.41910540 -0.93483621
N   5.57300725 -0.06281307  0.29140950
C   7.01101500 -0.12153220 -0.09362941
C   5.33740322  1.13011821  1.15470337
C   4.73036598  0.04037307 -0.93381396
C   5.20335913 -1.29784328  1.04113104
H   5.95909315  1.04400452  2.04436476
H   7.26116760  0.78306266 -0.64529019
H   7.61406799 -0.18945925  0.81006585
H   7.17088150 -0.99878513 -0.71799905
H   5.37001403 -2.15992608  0.39752458
H   5.82779333 -1.36651838  1.93023621
H   4.15363419 -1.23323134  1.32173276
H   5.00378831  0.94682757 -1.47139376
H   4.90536637 -0.83611792 -1.55546167
H   3.69001381  0.08299861 -0.62816431
H   5.60462691  2.02458080  0.59459986
H   4.28542764  1.15836578  1.43221987
B  -3.40743591 -0.19052047  2.21552108
F  -3.58682993  0.94091123  1.39553438
F  -4.43130281 -0.22975210  3.18796448
F  -3.46323977 -1.35987964  1.43111097
F  -2.15558728 -0.11304618  2.86138331

