58
Total Energy                               R     -1.612645276568018E+03
C   0.38164422 -1.48430223 -1.33213831
C  -0.80156240 -1.92621678 -0.45029211
C   0.80908648 -2.56987326 -2.31630606
N  -0.14368040 -0.32105614 -2.12672837
O  -0.93745526 -0.44524897 -2.97963278
C   0.38005418  1.02196901 -1.69556167
C  -0.81280776  1.70701879 -1.00437635
C   0.83015045  1.76185377 -2.95430815
C   1.49294689  0.58257727 -0.76833799
C   1.49930609 -0.79866776 -0.57925301
C   2.50123702 -1.40483599  0.17968857
C   2.55182189 -2.87229549  0.45813822
O   1.60620704 -3.54637051  0.79718054
O   3.78357962 -3.35902874  0.32321331
C   3.49148951 -0.60936912  0.74551220
C   3.48272430  0.76255504  0.56445516
C   2.48937178  1.37617821 -0.19315672
C   2.53311136  2.86405585 -0.31642936
O   1.56684704  3.59229291 -0.31500398
O   3.78195421  3.32120344 -0.39906712
H  -1.63583820 -2.23215561 -1.08363182
H  -1.11463212 -1.12721737  0.22055033
H  -0.46558335 -2.77311154  0.14336800
H  -0.03930207 -2.86700945 -2.93388486
H   1.13672678 -3.44301568 -1.75382807
H   1.62631759 -2.22466526 -2.95095073
H  -1.63974360  1.80177430 -1.71011420
H  -0.48502276  2.69660292 -0.69653807
H  -1.13371457  1.15274480 -0.12312301
H  -0.01143748  1.87970865 -3.63784379
H   1.64018285  1.22806936 -3.45332987
H   1.17739198  2.75387496 -2.67053898
H   3.79040061 -4.29817192  0.55878753
H   4.27254877 -1.06422512  1.34166629
H   4.25695293  1.36312454  1.02390757
H   3.76993036  4.28888091 -0.42482666
N  -4.75138550 -0.04221165 -0.08593294
C  -3.99626680 -0.20693769 -1.35963764
C  -4.40232564  1.27306608  0.52400406
C  -6.21467579 -0.09303464 -0.36021661
C  -4.38029418 -1.14075123  0.85181344
H  -3.33295310  1.29426845  0.72252324
H  -4.27050637  0.59812372 -2.03894722
H  -2.93780331 -0.16012469 -1.12805200
H  -4.24701939 -1.17232304 -1.79561318
H  -4.63466446 -2.09346468  0.39045536
H  -3.31143033 -1.08812834  1.04758173
H  -4.93701529 -1.00985165  1.77822773
H  -6.47046767  0.71233675 -1.04637390
H  -6.45341949 -1.05647620 -0.80735742
H  -6.75128884  0.02939807  0.57908783
H  -4.67399824  2.06372856 -0.17327619
H  -4.95798370  1.38445412  1.45349157
B  -0.32050213  0.48642899  2.81095940
F  -0.58322733  0.65582586  4.18684932
F  -1.54416297  0.32374343  2.12127007
F   0.34747383  1.62393796  2.31734239
F   0.47794018 -0.65763435  2.62201703

