58
Total Energy                               R     -1.612947676225750E+03
C   0.62456219  0.94686938  0.17822950
C   0.23750710  2.34940877 -0.29730256
C  -0.10601818  0.65782062  1.50176868
N   0.33999731 -0.00721154 -0.92694381
O  -1.00898601 -0.36189869 -1.03111338
C   1.26351148 -1.16958246 -0.83263780
C   1.47169800 -1.72135663 -2.24542606
C   0.78446561 -2.31327886  0.07910889
C   2.48972131 -0.47434953 -0.27217770
C   2.12163479  0.74478752  0.30745489
C   3.09770727  1.59794083  0.81646744
C   2.81435646  2.93444804  1.41867320
O   3.27747332  3.97106129  0.99149906
O   2.05044184  2.87870619  2.50585501
C   4.44456748  1.23960238  0.72497065
C   4.80864129  0.03546355  0.15209189
C   3.83359341 -0.83512871 -0.34084966
C   4.33658468 -2.08970321 -0.97404662
O   5.14263894 -2.10211891 -1.88090443
O   3.86289255 -3.19944096 -0.41499828
H  -0.81490645  2.34768081 -0.59338036
H   0.83584631  2.65247448 -1.16047567
H   0.34983483  3.10077007  0.48811122
H  -1.18207210  0.61369010  1.32449714
H   0.08692465  1.45764958  2.21730587
H   0.20539740 -0.28087012  1.96085217
H   0.50039540 -1.98784605 -2.67159962
H   2.08592588 -2.62504784 -2.25351578
H   1.93663951 -0.97528056 -2.89501057
H  -0.20853727 -2.63985820 -0.23717303
H   0.73220122 -2.02288727  1.12862485
H   1.46328129 -3.16299706  0.00260834
H   1.89933402  3.77339007  2.84473086
H   5.20782940  1.90910750  1.10581397
H   5.85642028 -0.23535906  0.08508058
H   4.21798784 -3.97282594 -0.87734092
N  -3.63456400 -2.15915711  1.49889642
C  -3.97537005 -0.71120280  1.40355104
C  -4.63409939 -2.85532102  2.35489001
C  -3.64005944 -2.75751931  0.13355650
C  -2.27556233 -2.30230217  2.09273744
H  -4.62652305 -2.39887929  3.34324113
H  -4.98206597 -0.61570397  1.00177829
H  -3.92486070 -0.27587574  2.40034754
H  -3.26086946 -0.23065762  0.74096916
H  -1.57283272 -1.76811872  1.46007869
H  -2.28409303 -1.87551114  3.09428350
H  -2.01982584 -3.35990629  2.13509822
H  -4.62956241 -2.62590470 -0.30097331
H  -2.89096712 -2.25047134 -0.47245832
H  -3.40351399 -3.81704979  0.21647517
H  -5.61793768 -2.75012945  1.90052844
H  -4.36345423 -3.90750486  2.42519589
B  -4.12693924  1.80082761 -1.48673425
F  -3.16871522  2.29133926 -2.39779302
F  -5.36405608  2.44447741 -1.71591334
F  -4.28387005  0.41220894 -1.66867750
F  -3.70332179  2.06689830 -0.16792198

