58
Total Energy                               R     -1.612952979125795E+03
C   0.38855935 -2.13101678 -0.23477562
C  -0.68024185 -2.41735109  0.82367191
C   1.05717919 -3.45518560 -0.64400544
N  -0.25475792 -1.38170200 -1.34166684
O  -1.01057618 -2.17090644 -2.21132618
C   0.75251489 -0.52167522 -2.01847909
C   0.00811203  0.66861930 -2.63030642
C   1.57981653 -1.22301494 -3.11421006
C   1.60325786 -0.15607898 -0.81602859
C   1.40011784 -1.08832550  0.20766429
C   2.00829685 -0.90568974  1.44707533
C   1.81991868 -1.81175557  2.61739925
O   1.41512926 -1.43227377  3.69653389
O   2.18951763 -3.06915031  2.38883888
C   2.79374676  0.22718508  1.67113688
C   2.99528698  1.14711760  0.66017091
C   2.41621964  0.95365025 -0.59608196
C   2.68655622  2.01244569 -1.61052700
O   2.52768439  3.19724035 -1.40266872
O   3.17617565  1.54104021 -2.75454519
H  -1.51898658 -2.93767718  0.35365363
H  -1.05143638 -1.48923626  1.26187330
H  -0.30929190 -3.06068066  1.62509763
H   0.31403952 -4.12365025 -1.08568838
H   1.47815557 -3.95149275  0.23101835
H   1.85949534 -3.31447276 -1.36850725
H  -0.76658184  0.29573913 -3.30596331
H   0.66688988  1.31203062 -3.21719277
H  -0.47119556  1.27126580 -1.85679565
H   0.91507460 -1.80663372 -3.75559216
H   2.33672666 -1.89395744 -2.70573559
H   2.09215168 -0.48778403 -3.73549040
H   2.03497398 -3.60165198  3.18301217
H   3.24700610  0.38505186  2.64338387
H   3.60727740  2.02341155  0.84174345
H   3.31095458  2.27017114 -3.37745037
N  -4.18572780 -0.11044440 -0.29428513
C  -2.97566036  0.48844602 -0.92969771
C  -5.37964230  0.72076610 -0.61278071
C  -4.38499001 -1.49066687 -0.81788890
C  -3.99842729 -0.16324165  1.18277523
H  -5.21467673  1.72798162 -0.23364778
H  -3.15006980  0.55033793 -2.00301822
H  -2.82793367  1.48574625 -0.51889144
H  -2.10818970 -0.14471252 -0.73256572
H  -3.12628906 -0.77455386  1.40227860
H  -3.85214338  0.84942540  1.55319853
H  -4.88739873 -0.60268998  1.63235453
H  -4.50572698 -1.44017916 -1.89858860
H  -3.51143510 -2.08946959 -0.56736963
H  -5.27745258 -1.91371021 -0.35935791
H  -5.51120084  0.74371103 -1.69324785
H  -6.25377273  0.27878920 -0.13743578
B  -0.66547534  2.46571816  1.55956754
F  -1.86637901  3.05536561  2.01676255
F  -0.73795933  1.07110249  1.72793080
F  -0.48544382  2.77677363  0.19742975
F   0.41918674  2.97479782  2.30603418

