58
Total Energy                               R     -1.612647183053185E+03
C   0.39974382 -1.95734488 -0.28523765
C   1.25009892 -1.34536415 -1.41208115
C   0.39904943 -3.48396746 -0.33225852
N   1.08028388 -1.53125413  0.98716905
O   2.13015727 -1.93688362  1.31043262
C   0.32521393 -0.50069506  1.78489182
C   1.09505675  0.81568141  1.57543001
C   0.32688415 -0.95051497  3.24295626
C  -1.00791656 -0.54596917  1.07529746
C  -0.95964228 -1.32814234 -0.07738890
C  -2.10841304 -1.52030919 -0.84703958
C  -2.12937014 -2.31935966 -2.11032183
O  -1.32430110 -2.21416549 -3.00717829
O  -3.17046866 -3.14643995 -2.15677430
C  -3.29648646 -0.91636715 -0.44780475
C  -3.34534732 -0.14559556  0.70120478
C  -2.20650750  0.04561717  1.47807425
C  -2.33466082  0.90642300  2.69395133
O  -1.56018683  1.78010545  3.01091751
O  -3.43567587  0.62359568  3.38621388
H   2.23609772 -1.81020720 -1.41061078
H   1.36014485 -0.26916544 -1.29374311
H   0.74657237 -1.55478792 -2.35279793
H   1.42165227 -3.85855218 -0.27626504
H  -0.02298916 -3.80190662 -1.28522714
H  -0.19473355 -3.90268735  0.48124417
H   2.12140920  0.69916673  1.92384105
H   0.59325414  1.58055948  2.16364408
H   1.09241342  1.11517951  0.52796723
H   1.35254880 -1.04540599  3.60094114
H  -0.19645695 -1.89998222  3.36250772
H  -0.16929855 -0.18974434  3.84359275
H  -3.18018016 -3.61011786 -3.00706122
H  -4.19358045 -1.04843261 -1.03970810
H  -4.27998437  0.31588711  0.99416504
H  -3.51200912  1.23248525  4.13553605
N  -1.18584932  3.00494289 -1.63731404
C  -2.62845208  2.77834441 -1.93511861
C  -1.02449123  3.31322248 -0.18819704
C  -0.41463138  1.77408558 -1.96720127
C  -0.67563629  4.14360349 -2.45194723
H  -1.58195283  4.22007640  0.04020163
H  -2.97836350  1.93800255 -1.33694091
H  -3.18351386  3.67963946 -1.68064794
H  -2.73668791  2.55580397 -2.99522446
H  -0.79490220  3.89997112 -3.50623442
H  -1.24812828  5.03579687 -2.20464028
H   0.37681346  4.29435506 -2.21784752
H  -0.80017165  0.95630208 -1.36380345
H  -0.54178598  1.55097888 -3.02525788
H   0.63591857  1.95050765 -1.74264832
H  -1.41632962  2.47805508  0.38684538
H   0.03313821  3.45658620  0.02527999
B   4.60076583  0.44570019 -0.23257271
F   3.53105983  1.16499015 -0.80486059
F   5.82076670  1.04989936 -0.60366857
F   4.48106943  0.45574732  1.17303316
F   4.57744671 -0.88646684 -0.69399033

