30
Total Energy                               R     -5.969057420945657E+02
C  -0.05189317 -0.73267284  1.21683492
C  -1.07580192 -0.94094991 -2.33316261
C  -1.07580192 -0.94094991  2.33316261
N  -0.49051675 -1.47208981 -0.00000000
O  -0.13094043 -2.83469756 -0.00000000
C  -0.05189317 -0.73267284 -1.21683492
C   1.33936497 -1.10398046 -1.75945508
C   1.33936497 -1.10398046  1.75945508
C  -0.04241803  0.68298938 -0.69509081
C  -0.04241803  0.68298938  0.69509081
C  -0.00791991  1.87690071  1.40310485
C   0.02699265  3.07931308  0.69718868
C   0.02699265  3.07931308 -0.69718868
C  -0.00791991  1.87690071 -1.40310485
H  -1.13445327 -2.00119509 -2.59816880
H  -0.79630949 -0.38765984 -3.23517861
H  -2.06949075 -0.60915426 -2.02024310
H  -1.13445327 -2.00119509  2.59816880
H  -2.06949075 -0.60915426  2.02024310
H  -0.79630949 -0.38765984  3.23517861
H   1.36168312 -2.14536508 -2.08976281
H   2.12952947 -0.96277502 -1.02066116
H   1.57429031 -0.47317625 -2.62210677
H   1.36168312 -2.14536508  2.08976281
H   1.57429031 -0.47317625  2.62210677
H   2.12952947 -0.96277502  1.02066116
H  -0.00782099  1.87968394  2.48944163
H   0.05319440  4.02114640  1.23615367
H   0.05319440  4.02114640 -1.23615367
H  -0.00782099  1.87968394 -2.48944163

