64
Total Energy                               R     -1.766442668924502E+03
C   0.01626437  0.57979717  0.49152421
C   0.81383968  1.69065825  1.17498139
C   0.68698119  0.19728264 -0.84059167
N   0.06149028 -0.59817978  1.40817263
O   1.13469708 -0.78907352  2.06560321
C  -0.80042463 -1.79227266  1.25284403
C  -0.02888765 -2.87599463  0.48143995
C  -1.12228947 -2.29414807  2.67044849
C  -2.09912580 -1.42818582  0.56031067
C  -2.42958861 -0.09196370  0.19335390
C  -1.44212393  0.94824645  0.21746740
C  -1.82942870  2.22286936 -0.13766646
C  -0.96106470  3.44244747 -0.21241696
O  -0.99306711  4.33815017  0.60171312
O  -0.24105760  3.49927944 -1.33087330
C  -3.16230006  2.50611278 -0.51970820
C  -4.09715207  1.52159218 -0.59207381
C  -3.76149425  0.19155312 -0.24217844
C  -4.69449767 -0.87814503 -0.37454951
C  -6.11756574 -0.69908519 -0.77281470
O  -6.69642470 -1.44246361 -1.53893371
O  -6.73096516  0.31812112 -0.16637441
C  -4.29760806 -2.16816234 -0.12872625
C  -3.01329486 -2.43458498  0.35757795
H   1.77716953  1.30204949  1.49160245
H   0.28934383  2.08549288  2.04728180
H   1.02990234  2.49857312  0.48181536
H   1.69822921 -0.16798434 -0.65369512
H   0.74947210  1.07719730 -1.48166115
H   0.12069353 -0.57034140 -1.37054507
H   0.93222574 -3.05618352  0.96402444
H   0.14157222 -2.59122784 -0.55646175
H  -0.58950417 -3.81174854  0.49115065
H  -0.20238958 -2.53733637  3.20275500
H  -1.73273769 -3.19604913  2.61792401
H  -1.66984015 -1.53641414  3.23595875
H   0.26242286  4.32682514 -1.35301708
H  -3.42691125  3.52251629 -0.79136475
H  -5.09431122  1.76106338 -0.93371649
H  -7.65011845  0.36626379 -0.46700413
H  -4.99757885 -2.98558326 -0.25830081
H  -2.76596432 -3.45817893  0.61099057
N   4.11327357 -2.57916535 -0.94844682
C   2.91006342 -3.01057118 -1.71471972
C   5.16144792 -3.63483437 -1.03083229
C   4.63870459 -1.31075957 -1.52879812
C   3.74310774 -2.35934773  0.47896722
H   4.76197684 -4.55694852 -0.61236169
H   3.20398759 -3.19833358 -2.74621229
H   2.51296172 -3.91882783 -1.26498106
H   2.16916732 -2.21511138 -1.67626981
H   2.96980374 -1.59673272  0.52899523
H   3.37540624 -3.29752747  0.89101502
H   4.62878845 -2.03318135  1.02091055
H   4.90570529 -1.49016885 -2.56902986
H   3.86450411 -0.54988515 -1.46472433
H   5.51621061 -1.00479006 -0.96272429
H   5.42996970 -3.78127603 -2.07557670
H   6.03033437 -3.30883414 -0.46165289
B   4.43898622  2.01907530  0.12580814
F   4.17788163  3.21762275  0.82324057
F   4.17997017  0.92076935  0.96980307
F   3.61397561  1.95356479 -1.01540785
F   5.79199407  1.99044188 -0.27589799

