58
Total Energy                               R     -1.389300636618267E+03
C   0.23882551 -1.58349437  1.34730754
C  -0.84064977 -0.80989350  2.11808634
C   0.49544972 -2.94852212  2.00744170
N  -0.30493974 -1.82224207 -0.01567773
O  -1.42604590 -2.42740434 -0.05453186
C   0.47433827 -1.82213472 -1.28247729
C   0.94347829 -3.26222721 -1.55544187
C  -0.47458189 -1.35380733 -2.39268882
C   1.68534535 -0.90999829 -1.18027527
C   2.17742217 -0.46206985  0.07743998
C   1.52604662 -0.77776270  1.30087435
C   2.08037226 -0.35694816  2.48738308
C   3.26633061  0.40180013  2.52217719
C   3.89842491  0.73972688  1.35811192
C   3.37547871  0.31319621  0.11390898
C   4.03730372  0.63986237 -1.09464212
C   3.54151658  0.20147915 -2.29004159
C   2.36903897 -0.57989176 -2.32640065
H  -1.76984298 -1.37869337  2.14469335
H  -1.02546528  0.15844513  1.64891274
H  -0.52433491 -0.64187880  3.14765264
H  -0.41704107 -3.54789613  2.00014368
H   0.80395561 -2.80513678  3.04469264
H   1.28412497 -3.49588952  1.48706614
H   0.08798695 -3.94111507 -1.57786754
H   1.64437566 -3.59976158 -0.78901146
H   1.44657268 -3.30568949 -2.52362560
H  -1.36858927 -1.97554798 -2.41675969
H   0.01085787 -1.43853671 -3.36456340
H  -0.76805408 -0.31274734 -2.24161385
H   1.60492019 -0.60734543  3.42904905
H   3.66682736  0.71876913  3.47922885
H   4.80833671  1.33178249  1.36817231
H   4.94308213  1.23669214 -1.05087346
H   4.04706647  0.44399891 -3.21875679
H   2.02172923 -0.93317437 -3.29011349
N  -4.45102995  0.30357514 -0.03224856
C  -4.69009654 -1.01533023  0.61921538
C  -3.31240386  0.18327051 -0.98779170
C  -5.67668027  0.72609775 -0.76632311
C  -4.11823165  1.31830335  1.00772257
H  -2.42238361 -0.08888488 -0.42849568
H  -4.93185513 -1.74650251 -0.15011138
H  -3.78687557 -1.31154619  1.14858550
H  -5.51934625 -0.91488511  1.31741721
H  -4.96215268  1.40726380  1.68992431
H  -3.23216848  0.98786670  1.54666654
H  -3.92736655  2.27126128  0.51733637
H  -5.89972391 -0.01567199 -1.53109424
H  -6.50199875  0.79772319 -0.05975939
H  -5.49050715  1.69505345 -1.22638152
H  -3.55190481 -0.58743161 -1.71811076
H  -3.16945117  1.14172662 -1.48266923
B   0.28515805  2.89119452 -0.16143956
F   0.99064327  2.75991357  1.05146620
F  -0.29217983  4.17915359 -0.22820310
F   1.16739589  2.71819894 -1.24740536
F  -0.73327883  1.92070567 -0.22278181

