58
Total Energy                               R     -1.389117148063122E+03
C  -2.31164163  0.99328370  0.62821416
C  -2.24046603  2.45061939  1.03836786
C  -3.73779811  0.44751121  0.85968782
N  -2.06094969  0.90422706 -0.85647471
O  -2.01056610  1.89135507 -1.49375926
C  -1.92114144 -0.41989854 -1.58178349
C  -3.28879233 -0.65824934 -2.25253726
C  -0.83887655 -0.21782553 -2.64925873
C  -1.51134546 -1.51481025 -0.61174440
C  -1.08133923 -1.21062635  0.70557940
C  -1.29695715  0.06961091  1.28461266
C  -0.74663235  0.37572298  2.50087078
C  -0.02163718 -0.59741711  3.22466033
C   0.10167357 -1.86991617  2.74129149
C  -0.42952037 -2.21205551  1.47210376
C  -0.32393221 -3.52292322  0.95023327
C  -0.82676301 -3.81550997 -0.28841376
C  -1.39962222 -2.80115226 -1.08150052
H  -2.97980162  3.03711295  0.49275457
H  -1.25158076  2.87588081  0.87386470
H  -2.48473869  2.52139859  2.09734386
H  -4.46501939  1.00059148  0.26275413
H  -3.95355697  0.60746081  1.91705234
H  -3.82161112 -0.61828935  0.65469054
H  -3.55302467  0.19884295 -2.87385554
H  -4.08027656 -0.84889002 -1.53043313
H  -3.18884444 -1.53010406 -2.89848475
H  -1.12883724  0.55365037 -3.36180535
H  -0.72350349 -1.15819357 -3.18708357
H   0.11419690  0.04450168 -2.19013096
H  -0.89220128  1.35201674  2.94543023
H   0.40176409 -0.33155654  4.18675345
H   0.61509077 -2.63442775  3.31557210
H   0.16665241 -4.28652618  1.54520032
H  -0.75268827 -4.82063145 -0.68806579
H  -1.71124309 -3.04652854 -2.09093133
N   3.19009020 -1.11686331 -0.54483541
C   2.65456030 -0.51371567  0.70948928
C   2.25929544 -2.18165860 -1.01248134
C   3.31163739 -0.06524658 -1.59393678
C   4.53064991 -1.70947507 -0.27899242
H   2.18879990 -2.94492958 -0.24057084
H   1.66567437 -0.10855514  0.50720100
H   2.59878592 -1.29137175  1.46849069
H   3.32944006  0.27751807  1.03022171
H   5.19813439 -0.92244946  0.06788627
H   4.42818304 -2.47840669  0.48476983
H   4.91057725 -2.14446593 -1.20191132
H   2.33148616  0.37355383 -1.76385251
H   4.00538856  0.69642030 -1.24481411
H   3.68615090 -0.52630664 -2.50634173
H   1.28378025 -1.73499992 -1.19259180
H   2.65143181 -2.61195817 -1.93242935
B   1.42505464  2.94417844  0.00745090
F   0.71878036  4.15562154 -0.14431593
F   1.57927435  2.65837012  1.37761102
F   0.69695974  1.90404108 -0.61461431
F   2.69149163  3.05738447 -0.59773255

