58
Total Energy                               R     -1.389112153967977E+03
C   0.68601107 -1.38644418  1.57197012
C  -0.40148316 -1.12674291  2.60003216
C   1.46890521 -2.66865022  1.93582218
N   0.01043207 -1.67954412  0.25002645
O  -1.13757672 -1.93497218  0.24637998
C   0.75232463 -1.75904128 -1.06757903
C   1.03509326 -3.26217975 -1.28724438
C  -0.21357155 -1.25649409 -2.14696120
C   2.01302490 -0.91451849 -1.01336860
C   2.34780954 -0.12585740  0.11937839
C   1.65467696 -0.23664240  1.35569851
C   1.96320461  0.60061890  2.39566990
C   2.98911640  1.56206146  2.27011562
C   3.70897359  1.65480045  1.11313413
C   3.41302099  0.81054759  0.01360630
C   4.16531587  0.87927165 -1.18311200
C   3.87177924  0.05190754 -2.23187247
C   2.78197067 -0.83671453 -2.14909065
H  -1.08617176 -1.97180309  2.66424492
H  -0.95981604 -0.21954044  2.36884739
H   0.06731249 -1.01544718  3.57610572
H   0.81789020 -3.54456814  1.91359704
H   1.82880899 -2.52032434  2.95479435
H   2.33117011 -2.82590493  1.29028847
H   0.10759475 -3.83229382 -1.21435117
H   1.77060558 -3.65736366 -0.59034509
H   1.42493775 -3.36668675 -2.29993471
H  -1.11062403 -1.87299460 -2.18881283
H   0.29245981 -1.33058688 -3.10835416
H  -0.48342193 -0.21623278 -1.97394646
H   1.44319051  0.52541933  3.34207074
H   3.21082461  2.21047378  3.11041158
H   4.51801042  2.37183790  1.01719576
H   4.97951068  1.59389860 -1.24919031
H   4.45536147  0.09061959 -3.14486786
H   2.54173956 -1.44222729 -3.01586892
N  -4.48712671  0.04063852 -0.06814852
C  -4.05735699 -0.71020322  1.14535005
C  -3.52733792 -0.21807906 -1.18021790
C  -5.84924850 -0.40612452 -0.47422685
C  -4.50850947  1.49957957  0.23806814
H  -2.54093240  0.11325334 -0.86725496
H  -4.02651572 -1.77195405  0.90810930
H  -3.07125719 -0.35907498  1.44033286
H  -4.77575658 -0.52413830  1.94199074
H  -5.21453478  1.67692762  1.04749478
H  -3.50826102  1.80804818  0.53452880
H  -4.81713445  2.03915418 -0.65565537
H  -5.81635596 -1.47237239 -0.69142876
H  -6.54082803 -0.21044254  0.34337102
H  -6.14847969  0.14903069 -1.36163171
H  -3.52331603 -1.28545437 -1.39375026
H  -3.85289208  0.33913906 -2.05728071
B  -0.42639325  2.30940844 -0.44090034
F   0.28882833  3.08412399  0.49092227
F  -1.59630195  2.99363703 -0.83062890
F   0.37514338  2.06928085 -1.57291690
F  -0.79055789  1.07741501  0.15357592

