58
Total Energy                               R     -1.389414584756137E+03
C   0.50213511 -1.89823989  1.24248073
C  -0.66265928 -1.75173229  2.23334263
C   1.31887032 -3.15186126  1.63592065
N  -0.11053588 -1.92814757 -0.10629214
O  -1.00660166 -3.01333811 -0.21205792
C   0.79179237 -1.89502270 -1.28102303
C   1.55887058 -3.20536785 -1.56812784
C  -0.10604129 -1.59309505 -2.49636221
C   1.79510559 -0.75889334 -1.11925863
C   2.04255198 -0.17972416  0.15794145
C   1.42087972 -0.68748387  1.33607678
C   1.71352130 -0.10375854  2.54594424
C   2.59049698  0.99757351  2.64739520
C   3.19019707  1.50625994  1.52996348
C   2.94361113  0.92087524  0.26279238
C   3.59448287  1.40697108 -0.89685542
C   3.37678787  0.80716959 -2.10667702
C   2.47769846 -0.27341729 -2.21167462
H  -1.33055705 -2.60792922  2.14972890
H  -1.23481488 -0.84409067  2.02220071
H  -0.31425411 -1.70886153  3.26625705
H   0.78605621 -4.06319649  1.35307798
H   1.47293764 -3.17123306  2.71876939
H   2.30455442 -3.16655714  1.16895650
H   0.87483274 -4.05667430 -1.56904899
H   2.34874780 -3.39619998 -0.84180937
H   2.02858833 -3.15001269 -2.55416831
H  -0.90202274 -2.33440592 -2.56687910
H   0.45710856 -1.62438968 -3.43084639
H  -0.56063113 -0.60392891 -2.40499610
H   1.27053909 -0.48392038  3.45848032
H   2.78277373  1.43533350  3.62182334
H   3.86846311  2.35188828  1.59494329
H   4.27355654  2.24938335 -0.80470907
H   3.88492415  1.16492154 -2.99653200
H   2.32263698 -0.71493720 -3.18943104
N  -3.99668049  0.02806460 -0.03271165
C  -4.26970301 -1.30532360  0.57312780
C  -2.80541517 -0.07027309 -0.92517982
C  -5.17790706  0.46601324 -0.82717474
C  -3.73096554  1.01934917  1.04724460
H  -1.94865329 -0.43273370 -0.35429165
H  -4.44186383 -2.02356485 -0.22660263
H  -3.40607909 -1.60422695  1.16372454
H  -5.15195064 -1.22739228  1.20658196
H  -4.60541404  1.07261955  1.69392279
H  -2.86230882  0.69242489  1.61426893
H  -3.53884245  1.98877493  0.59172972
H  -5.36907273 -0.27000264 -1.60599531
H  -6.03876591  0.54496055 -0.16530119
H  -4.95761954  1.43442149 -1.27351825
H  -3.03607389 -0.77244947 -1.72480956
H  -2.60243619  0.91521414 -1.34060487
B  -0.36313344  2.93016233 -0.20859673
F   0.75643689  3.76430470  0.00153844
F  -1.51072547  3.72923510 -0.41583700
F  -0.14437507  2.12996269 -1.34640758
F  -0.56147234  2.11684482  0.92272528

