56
Total Energy                               R     -1.350314513917053E+03
C   0.94424091  0.31726035  0.61261541
C   0.57799776  1.27990481  1.74301241
C   0.09117943  0.67071490 -0.61953954
N   0.80369369 -1.08006471  1.10334239
O  -0.49572237 -1.57089203  1.02325114
C   1.81278883 -1.94529521  0.43511876
C   2.24795353 -3.04222206  1.40878641
C   1.33507413 -2.61427016 -0.86627745
C   2.90801558 -0.94527324  0.15414404
C   2.41143687  0.35302903  0.26044378
C   3.22062326  1.44945176  0.02659587
C   4.56068059  1.24369809 -0.32469227
O   5.29379494  2.36978432 -0.53643545
C   6.65789753  2.22528724 -0.88797145
C   5.06730544 -0.05245850 -0.43583110
C   4.23177284 -1.14814886 -0.19271297
H  -0.45837806  1.10817093  2.04834984
H   0.66721129  2.32537668  1.42925124
H   1.22324707  1.12337255  2.61261168
H  -0.96821665  0.55687071 -0.38662012
H   0.32172921  0.04043340 -1.48040763
H   0.27014839  1.71134277 -0.90979740
H   1.38487722 -3.65770899  1.68158997
H   2.66133149 -2.60753762  2.32369010
H   3.00439319 -3.69925507  0.96591648
H   0.47706467 -3.25838775 -0.66203633
H   2.13879627 -3.22773456 -1.28749710
H   1.04038638 -1.88632332 -1.62450185
H   2.84485500  2.46540005  0.10877933
H   7.04696920  3.23608092 -1.00359654
H   6.77271771  1.68562260 -1.83368236
H   7.22114476  1.71073077 -0.10267765
H   6.10220050 -0.22570170 -0.70492890
H   4.63847854 -2.15220537 -0.27988080
N  -3.31211733 -2.16947330 -0.52897320
C  -4.60725387 -2.45376830 -1.19902879
C  -2.23736653 -1.96579604 -1.54450926
C  -3.42608116 -0.93092632  0.29734202
C  -2.92815850 -3.30878464  0.35423376
H  -2.14750785 -2.87305448 -2.14164767
H  -4.86762572 -1.60687903 -1.83248224
H  -4.50227510 -3.35449698 -1.80246750
H  -5.37308733 -2.59978464 -0.43820990
H  -3.70426946 -3.43897412  1.10809726
H  -2.84776442 -4.20857911 -0.25512794
H  -1.96859197 -3.05878349  0.81295259
H  -3.67441826 -0.10320663 -0.36320666
H  -4.21845631 -1.07410834  1.03143619
H  -2.45753554 -0.77441204  0.77874847
H  -2.51534249 -1.12540066 -2.18008369
H  -1.32155994 -1.75987132 -0.98449787
B  -4.01862146  2.73818464  0.05304574
F  -4.13800082  4.14370482  0.09233188
F  -5.29944978  2.15517305  0.16878401
F  -3.43774739  2.35104464 -1.17387257
F  -3.20609864  2.30555429  1.11955786

