56
Total Energy                               R     -1.350037435407946E+03
C   0.60025294  0.94785450 -1.16603440
C   1.61924749  0.49737920 -2.20518679
C  -0.40088791  1.95873018 -1.74631184
N   1.31446249  1.66256030 -0.04050134
O   2.08094704  2.53030603 -0.22422966
C   0.91260916  1.19750562  1.34037538
C   2.16078345  0.93089932  2.17251532
C   0.06643804  2.33600856  1.93333062
C   0.10648556 -0.01734341  0.97868292
C  -0.06513991 -0.15613069 -0.39340488
C  -0.80314263 -1.19211583 -0.92726269
C  -1.38991387 -2.11293504 -0.05324735
O  -2.11971650 -3.08811300 -0.63795021
C  -2.76907556 -4.03983778  0.19409370
C  -1.21858366 -1.98373872  1.32891514
C  -0.46581822 -0.93196754  1.84383604
H   2.13897863  1.35312164 -2.63872042
H   1.06707739 -0.00981122 -2.99840149
H   2.33862851 -0.19762356 -1.77590971
H   0.12376119  2.81429075 -2.17609805
H  -1.11196285  2.29806276 -0.99227221
H  -0.94842919  1.44657704 -2.53880239
H   2.75598004  1.83782153  2.28916390
H   2.76680774  0.14083275  1.73282168
H   1.82434136  0.60951972  3.16014885
H   0.68427431  3.21681205  2.11858637
H  -0.33192439  1.97522845  2.88315246
H  -0.76654445  2.60045226  1.28100182
H  -0.94274513 -1.30078910 -1.99732653
H  -3.30387710 -4.70639002 -0.48013434
H  -3.48301940 -3.55621685  0.86777581
H  -2.04388597 -4.61661662  0.77517891
H  -1.66587090 -2.69315042  2.01304259
H  -0.33970460 -0.83584255  2.91708822
N  -4.43627490  0.82906611 -0.17725627
C  -3.35705370  1.26448814  0.75441246
C  -3.97166810  1.00056156 -1.58354692
C  -4.75608041 -0.60677653  0.06483608
C  -5.65419658  1.65733971  0.05186293
H  -3.73869378  2.05093451 -1.74870815
H  -2.47315495  0.65863845  0.56978731
H  -3.14110152  2.31509000  0.56839784
H  -3.70080453  1.12653117  1.77815002
H  -5.98223825  1.51738837  1.08047838
H  -5.40326223  2.70199698 -0.12461814
H  -6.43115753  1.33457525 -0.63901527
H  -3.86775805 -1.19876035 -0.14362736
H  -5.05810560 -0.72860116  1.10347265
H  -5.56551590 -0.90044375 -0.60128266
H  -3.08371000  0.38891344 -1.73255371
H  -4.76713808  0.68018236 -2.25438153
B   4.70762310 -0.67810814 -0.22949015
F   5.58877732 -0.86507504  0.85460367
F   5.33484973 -1.07483495 -1.42779546
F   3.54656212 -1.45694929 -0.02858372
F   4.35091591  0.68456597 -0.31537960

