33
Total Energy                               R     -6.526082620894470E+02
C  -1.34271404 -1.11484605  0.00944627
C  -1.81590039 -1.75067470 -1.29889216
C  -1.81086178 -1.92280278  1.21724165
N  -1.84438355  0.27882060  0.10400310
O  -3.08292304  0.54699754  0.08973443
C  -0.81215678  1.34051408  0.00628057
C  -0.97841170  2.10848094 -1.30616985
C  -0.90491404  2.27552505  1.20932671
C   0.43417902  0.49474558  0.01278282
C   0.14244276 -0.86243103  0.01244955
C   1.15704903 -1.80922092  0.00279385
C   2.47830853 -1.38038820 -0.00501472
N   4.14561095  0.41808113  0.00727182
C   2.74478001 -0.01873004 -0.00314677
C   1.74715010  0.94038300  0.00551702
H  -2.90553761 -1.82868674 -1.30926138
H  -1.39801464 -2.75607822 -1.38857912
H  -1.49448592 -1.16082580 -2.16045964
H  -2.90135121 -1.98747771  1.22980495
H  -1.47152822 -1.46765334  2.15049050
H  -1.40909765 -2.93695135  1.15759141
H  -1.93746620  2.63141407 -1.31939622
H  -0.93033018  1.43357304 -2.16390850
H  -0.18119202  2.84962076 -1.39985102
H  -1.86980785  2.78763873  1.21706305
H  -0.11814318  3.03099751  1.14733639
H  -0.78719239  1.72553078  2.14572960
H   0.93019861 -2.86969281 -0.00078588
H   3.29367527 -2.09562752 -0.01414950
H   4.71197529 -0.12038296 -0.65096675
H   4.23387259  1.40301867 -0.24833012
H   4.56610582  0.30556578  0.93184035
H   1.98940757  1.99839498  0.00334243

