57
Total Energy                               R     -1.330165844135869E+03
C  -0.76249422 -0.29353775 -1.48808904
C  -2.01104376  0.42858613 -1.98660224
C   0.01780795 -0.95003856 -2.63143708
N  -1.18980053 -1.40377102 -0.55521840
O  -1.94840398 -2.23989237 -0.86769050
C  -0.52890316 -1.36132784  0.80214414
C  -1.60324770 -1.41781736  1.88201390
C   0.41160247 -2.57284122  0.85868560
C   0.20406327 -0.05520833  0.69760363
C   0.09470080  0.51718556 -0.55897856
C   0.75935787  1.69506611 -0.86686526
C   1.54398229  2.30754784  0.10738237
C   2.27239250  3.58929241 -0.19929432
N   1.51471586  4.74887281  0.29111914
C   1.63128582  1.73007527  1.37875712
C   0.96828516  0.54929326  1.68472666
H  -2.65930472 -0.25458255 -2.53691248
H  -1.67634527  1.21738210 -2.66262573
H  -2.55827511  0.88019609 -1.16050353
H  -0.63837208 -1.59692330 -3.21600398
H   0.86723243 -1.52372801 -2.25888895
H   0.38798234 -0.14676282 -3.27049478
H  -2.15727724 -2.35577349  1.82628211
H  -2.28942900 -0.57544078  1.80129152
H  -1.09233650 -1.36997661  2.84528139
H  -0.16366655 -3.49977624  0.83462163
H   0.95666761 -2.51317275  1.80182975
H   1.12813919 -2.55876238  0.03629705
H   0.68158383  2.12826935 -1.85970830
H   2.46671614  3.64010737 -1.27748579
H   3.24219487  3.58395047  0.30325277
H   0.64630371  4.81147841 -0.23193968
H   2.03552437  5.59066981  0.06649663
H   2.24373199  2.20968327  2.13613789
H   1.05902507  0.10142482  2.66860272
N   4.50321766 -1.06712224  0.03365944
C   3.44529576 -0.99582641 -1.01359149
C   5.64722415 -1.87803337 -0.46955270
C   4.97415271  0.30908271  0.35981302
C   3.94333965 -1.70312013  1.26036027
H   5.29012706 -2.88021170 -0.70056683
H   3.86198600 -0.52229015 -1.90085932
H   3.11667174 -2.00713687 -1.24612441
H   2.61718648 -0.40636604 -0.62856279
H   3.11124722 -1.09891850  1.61637682
H   3.60184826 -2.70589169  1.01055258
H   4.72612317 -1.74873442  2.01578676
H   5.37457892  0.76447625 -0.54421729
H   4.13047360  0.88848896  0.73055786
H   5.74868144  0.24101683  1.12188015
H   6.04477800 -1.40470163 -1.36563685
H   6.41201952 -1.92065105  0.30416010
B  -4.89767870  0.18505802  0.32654121
F  -5.92741305  0.00653610  1.27265732
F  -5.41644668  0.80962981 -0.82636557
F  -3.88541887  0.99702093  0.88358768
F  -4.35782488 -1.06981136 -0.02315015

