57
Total Energy                               R     -1.330355920557136E+03
C  -0.35585465 -1.72976669 -1.34455901
C  -0.98179231 -2.78083698 -2.26384099
C   0.47993408 -0.73246598 -2.14143608
N   0.48557577 -2.39899031 -0.32177622
O   1.49720881 -3.09652738 -0.63536882
C  -0.03608143 -2.35314503  1.06678926
C  -0.45914056 -3.75542120  1.50741766
C   1.02517428 -1.77923436  2.00235254
C  -1.20951946 -1.42689432  0.87717880
C  -1.37746547 -1.07048284 -0.45368718
C  -2.38459029 -0.19458334 -0.83100859
C  -3.23921813  0.33021391  0.13780772
C  -4.34711609  1.26772285 -0.26404504
N  -5.58153785  0.52212879 -0.55675551
C  -3.06896581 -0.04561595  1.47370237
C  -2.05679333 -0.92046042  1.85312378
H  -0.20505692 -3.31010818 -2.82145310
H  -1.64612024 -2.29085318 -2.97974087
H  -1.56316051 -3.50694188 -1.69054026
H   1.27798340 -1.24813781 -2.68081888
H   0.92254230  0.01970752 -1.48743522
H  -0.15557690 -0.22623266 -2.87177163
H   0.40651252 -4.42147241  1.54425753
H  -1.19956991 -4.17450107  0.82193739
H  -0.89832216 -3.70708354  2.50670761
H   1.92075065 -2.40530367  1.99622215
H   0.63631609 -1.74887981  3.02290413
H   1.29706164 -0.76370879  1.70815414
H  -2.50133210  0.09659510 -1.87163084
H  -4.01325656  1.86972531 -1.11822817
H  -4.55786290  1.95932061  0.55423274
H  -5.41149364 -0.07610715 -1.35994258
H  -6.29327390  1.18343644 -0.85151545
H  -3.73316442  0.36591648  2.22827378
H  -1.92616194 -1.19084920  2.89646053
N   4.09998170  0.67288055 -0.03909476
C   4.46270647  0.11920250  1.29670353
C   5.21306337  1.52413742 -0.54589343
C   3.85741757 -0.44996284 -0.98891027
C   2.86228196  1.49529500  0.08486370
H   5.37463507  2.34225948  0.15371706
H   5.36598085 -0.47957137  1.19342567
H   4.63569526  0.94682998  1.98239219
H   3.64105201 -0.49908970  1.65322419
H   2.05552969  0.85912706  0.43860487
H   3.04694658  2.29785576  0.79630420
H   2.61734728  1.90660082 -0.89238540
H   4.77454066 -1.02885555 -1.08498584
H   3.05968998 -1.07597975 -0.59409773
H   3.57086636 -0.03588187 -1.95380490
H   6.11185761  0.91534997 -0.62581100
H   4.93681863  1.91555431 -1.52335567
B  -0.41244658  3.01498480  0.13679934
F  -0.15410242  1.95042282  1.02233014
F   0.54316214  4.03464843  0.34274852
F  -0.32771391  2.56166979 -1.19519163
F  -1.70530032  3.52550676  0.37830031

