57
Total Energy                               R     -1.330463519102877E+03
C  -0.15565831 -1.27320906  1.20419529
C  -0.03389194 -2.04295101  2.51929231
C  -0.69672435  0.13460167  1.51421224
N  -0.94946327 -2.07718275  0.23447395
O  -2.33905917 -1.94661983  0.39280897
C  -0.47251067 -1.80024996 -1.14875403
C  -0.64216652 -3.05492319 -2.00548193
C  -1.15598836 -0.62405489 -1.87044548
C   0.97407536 -1.46803614 -0.87921896
C   1.15508699 -1.16676884  0.46518719
C   2.39759703 -0.77942216  0.94249798
C   3.47963535 -0.68904823  0.06332124
C   4.83509936 -0.28767118  0.58187511
N   5.57415890 -1.45820241  1.08377946
C   3.28840892 -0.99915426 -1.28499626
C   2.03902433 -1.38840703 -1.76501582
H  -1.02303383 -2.18890471  2.96476393
H   0.57897278 -1.49597677  3.24244214
H   0.41884428 -3.02502512  2.35820847
H  -1.69541365  0.08101984  1.95511247
H  -0.74515101  0.76934810  0.62890024
H  -0.03688933  0.62506290  2.23582231
H  -1.70152901 -3.31883195 -2.08462304
H  -0.10809736 -3.90309330 -1.56879953
H  -0.26291702 -2.89495452 -3.01960725
H  -2.22570414 -0.81016280 -1.99596557
H  -0.71632054 -0.50401073 -2.86530956
H  -1.03140910  0.32054297 -1.34030260
H   2.53451640 -0.52737407  1.99171269
H   4.70859566  0.48176798  1.35408323
H   5.42100295  0.15966004 -0.22373332
H   5.05598460 -1.85291283  1.86331218
H   6.45523266 -1.13783648  1.47401067
H   4.12874711 -0.92604188 -1.97011795
H   1.90566470 -1.61467557 -2.81924494
N  -5.01076882  0.82218249  0.14982466
C  -5.29276082 -0.19306595 -0.90488445
C  -6.09827697  1.83955291  0.16492196
C  -4.93420517  0.14832985  1.47823031
C  -3.70628520  1.48293480 -0.14056060
H  -6.14125859  2.31931018 -0.81146779
H  -6.24859822 -0.66649733 -0.68615839
H  -5.33349805  0.30902632 -1.87000879
H  -4.49417418 -0.93317496 -0.89687706
H  -2.93731338  0.71577511 -0.15970952
H  -3.77224084  1.97928188 -1.10733165
H  -3.49790638  2.20898952  0.64348127
H  -5.88914635 -0.33464540  1.67941423
H  -4.13394778 -0.59019506  1.44448378
H  -4.72592314  0.89931323  2.23849933
H  -7.04137141  1.33982800  0.38057666
H  -5.87821132  2.57587474  0.93593225
B   2.19413292  2.91005168 -0.26777615
F   1.41002469  2.05863715 -1.07044549
F   1.83163007  4.25279615 -0.51832141
F   1.97715898  2.61731038  1.09404710
F   3.55830407  2.72946602 -0.57837942

