56
Total Energy                               R     -1.350211425220037E+03
C   0.00062497 -1.75707838 -1.37326019
C  -0.34230637 -2.97694845 -2.23498883
C   0.65886544 -0.67414886 -2.22038445
N   0.89249664 -2.16700868 -0.25604347
O   2.05385913 -2.63095022 -0.46436384
C   0.22083585 -2.29700560  1.06498472
C   0.01146690 -3.77850958  1.39326346
C   1.04678726 -1.62149359  2.15507936
C  -1.07162903 -1.58176220  0.76552567
C  -1.18852435 -1.26899808 -0.58559262
C  -2.28409293 -0.58154810 -1.06963931
C  -3.28256897 -0.19347913 -0.17322856
O  -4.32432888  0.50202502 -0.71643255
C  -5.32917933  0.99326721  0.15960515
C  -3.18131043 -0.51070013  1.18252255
C  -2.06823274 -1.20930776  1.64946315
H   0.56306651 -3.38147965 -2.69464486
H  -1.02877199 -2.67788980 -3.03071218
H  -0.81911785 -3.76077195 -1.64286809
H   1.57342882 -1.05282183 -2.68222896
H   0.89783288  0.20844518 -1.62797797
H  -0.02496067 -0.37639667 -3.01864716
H   0.97427531 -4.28506033  1.49942025
H  -0.56759978 -4.27945065  0.61477485
H  -0.52997021 -3.86741847  2.33825301
H   2.02726881 -2.09518422  2.24418175
H   0.53250000 -1.72804177  3.11321318
H   1.18134162 -0.55742369  1.95568833
H  -2.37507223 -0.32019816 -2.11894314
H  -6.02832657  1.54293462 -0.46800631
H  -4.90417328  1.66819669  0.90763631
H  -5.85564620  0.17346348  0.65628632
H  -3.95062347 -0.21314702  1.88356509
H  -1.98927593 -1.44223366  2.70683752
N   3.91930357  1.06321083  0.08438707
C   4.32347052  0.13743936  1.18023177
C   4.80253406  2.26247929  0.08975665
C   4.03970270  0.35736976 -1.22304255
C   2.50543939  1.48834325  0.29200719
H   4.69774592  2.76992165  1.04726774
H   5.36055832 -0.15557129  1.02560740
H   4.21580977  0.65366009  2.13262005
H   3.67836612 -0.73875170  1.15111378
H   1.87278287  0.60605534  0.26569419
H   2.42728225  1.97981146  1.25946391
H   2.22761010  2.17544799 -0.50442536
H   5.08368040  0.09008262 -1.37832857
H   3.42358920 -0.53926980 -1.19172474
H   3.69903126  1.02289460 -2.01428160
H   5.83234520  1.94020042 -0.05413791
H   4.49899994  2.92358077 -0.72022321
B  -0.86385211  2.86852195  0.06484011
F  -0.47542746  1.85922030  0.96661201
F  -0.12997269  4.04422005  0.33951584
F  -0.60380494  2.45737842 -1.25831630
F  -2.24244577  3.12854551  0.21390765

