56
Total Energy                               R     -1.350317407358368E+03
C   0.93284483  0.22880145  0.84948820
C   0.68616839  1.26511972  1.94581814
C  -0.05297799  0.49581187 -0.30271780
N   0.89051919 -1.13523803  1.44463445
O  -0.40868959 -1.64545664  1.61494936
C   1.80433928 -2.03782005  0.69264856
C   2.37679521 -3.08744662  1.64587428
C   1.18302400 -2.76771952 -0.51174624
C   2.84256224 -1.04614052  0.22808061
C   2.34677276  0.25180769  0.32400666
C   3.10696221  1.33897908 -0.06466751
C   4.39502749  1.11708739 -0.56274092
O   5.09024996  2.23985468 -0.92783817
C   6.40739012  2.07375553 -1.43128766
C   4.90267020 -0.17810082 -0.66443118
C   4.11659152 -1.26307875 -0.26443657
H  -0.30534815  1.11919367  2.38408341
H   0.72664344  2.28310711  1.54649311
H   1.43037456  1.17714509  2.74207799
H  -1.08334942  0.38019907  0.03457200
H   0.10755804 -0.16804023 -1.15296806
H   0.07125981  1.52387828 -0.65531483
H   1.57420618 -3.71577669  2.04475711
H   2.89272257 -2.61385979  2.48539016
H   3.08664834 -3.74262528  1.13120359
H   0.37279881 -3.42800146 -0.19243490
H   1.94668171 -3.38391806 -0.99624879
H   0.78843056 -2.08091212 -1.26188747
H   2.73010478  2.35501719  0.00684037
H   6.77080564  3.07555051 -1.65370291
H   6.40848790  1.47607333 -2.34736185
H   7.05965580  1.60862567 -0.68648452
H   5.89910229 -0.35906611 -1.04751924
H   4.51998708 -2.26837880 -0.34601506
N  -3.63316327 -2.01553713 -0.85679881
C  -4.70189411 -2.10936738 -1.88946591
C  -2.29543604 -2.02501954 -1.51572116
C  -3.79367967 -0.74881449 -0.08578610
C  -3.72991341 -3.17699589  0.07171109
H  -2.18743119 -2.95417308 -2.07300854
H  -4.62029706 -1.25250185 -2.55589701
H  -4.56821355 -3.03404104 -2.44849574
H  -5.67063616 -2.10742524 -1.39277226
H  -4.70260188 -3.15477633  0.56009178
H  -3.61892181 -4.09477057 -0.50329064
H  -2.93415731 -3.09816167  0.81088290
H  -3.67860445  0.08857194 -0.76986626
H  -4.78513310 -0.73753499  0.36376332
H  -3.02838535 -0.71522544  0.68762064
H  -2.23089563 -1.17129861 -2.18819872
H  -1.53648673 -1.95555036 -0.74035409
B  -3.48290490  2.88340325  0.19157846
F  -3.43002242  4.28450544  0.35024236
F  -4.82940184  2.46018422  0.20226939
F  -2.89091563  2.52904091 -1.03945234
F  -2.78720874  2.26479682  1.24879105

