46
Total Energy                               R     -7.145690587731087E+02
C  -2.67514343  0.89345920 -0.22825808
C  -2.39011774  2.36218388  0.07781068
C  -3.83340028  0.86312381 -1.22966602
N  -1.47518790  0.18193361 -0.82391365
O  -0.26832734  0.84437074 -0.41255631
C  -1.47950761 -1.18237856 -0.18801363
C  -2.53053020 -2.10459666 -0.81697378
C  -0.13488317 -1.89016371 -0.33193189
C  -1.87704714 -0.86614036  1.26707961
N  -0.71560415 -0.16049089  1.89901413
C  -3.01638906  0.12856430  1.08965647
H  -2.03751749  2.89573003 -0.80862026
H  -1.65410008  2.49255210  0.87163525
H  -3.32215649  2.83378719  0.40517527
H  -3.60122068  1.49468529 -2.09246452
H  -4.74337836  1.25414490 -0.76320220
H  -4.05360458 -0.13683222 -1.60176255
H  -2.39514015 -2.13938783 -1.90086438
H  -3.56074100 -1.81903208 -0.61319412
H  -2.39896170 -3.11787558 -0.42848098
H   0.10207844 -2.03325570 -1.39006575
H  -0.19370669 -2.87740842  0.13463611
H   0.69482555 -1.35264345  0.11851114
H  -2.13434165 -1.73707237  1.87013434
H  -0.32559974  0.46238346  1.08625939
H   0.00893224 -0.80877377  2.19633316
H  -1.00002528  0.39498269  2.70126090
H  -3.10741948  0.80246633  1.94551811
H  -3.96142391 -0.41112404  1.01087383
N   3.78597147  0.17729051 -0.11117651
C   2.82330971  0.31286257  1.01954427
C   3.19327517 -0.68680478 -1.17233794
C   4.07469739  1.52618839 -0.67582286
C   5.05065465 -0.43789702  0.38151775
H   2.99407255 -1.67041020 -0.75098410
H   1.90703429  0.76056445  0.63959825
H   2.62251096 -0.67643753  1.42735209
H   3.27045944  0.94819411  1.78230278
H   5.47144254  0.20003474  1.15685940
H   4.82460833 -1.42272535  0.78664964
H   5.74563730 -0.52396067 -0.45195622
H   3.14261563  1.96279881 -1.03045369
H   4.50692775  2.14740350  0.10669891
H   4.77730392  1.41775808 -1.50013188
H   2.26726673 -0.22996699 -1.51725596
H   3.90447451 -0.76708432 -1.99300669

