62
Total Energy                               R     -1.798114217822772E+03
C  -1.70278155 -1.69442593  1.53851969
C  -2.24750981 -0.51669064  2.35856545
C  -2.05655287 -3.02734342  2.23600045
N  -2.47232033 -1.71496056  0.23876760
O  -3.63405642 -1.54431032  0.28863832
C  -1.83688416 -2.05721013 -1.08221369
C  -1.60087700 -3.58923232 -1.03695820
C  -2.82029969 -1.71775136 -2.18900013
C  -0.49208386 -1.35527473 -1.15868252
C   0.33123944 -1.27477320  0.00104597
C  -0.21278606 -1.53839726  1.28736089
C   0.60531447 -1.56265836  2.38779841
C   1.96030701 -1.23826293  2.27589005
C   2.47881898 -0.89094434  1.06111305
N   3.83519749 -0.33071451  1.10727597
O   4.65866124 -0.88584834  1.80116457
O   4.03737722  0.70072546  0.48890721
C   1.71355598 -0.93408724 -0.13291271
C   2.17803821 -0.67897347 -1.45204897
N   3.60756013 -0.60599492 -1.77557015
O   4.33267628 -1.44545347 -1.27099649
O   3.97441175  0.23492517 -2.56804227
C   1.33953335 -0.62049592 -2.52501875
C  -0.01280801 -0.96229304 -2.37707557
H  -3.31072284 -0.64530471  2.55922147
H  -2.08336501  0.42906102  1.84666835
H  -1.72198513 -0.50167081  3.31248287
H  -3.13993306 -3.13829433  2.29926001
H  -1.66406170 -2.98065653  3.25143916
H  -1.62436166 -3.88893566  1.73076631
H  -2.53485701 -4.11376418 -0.82754709
H  -0.83980782 -3.87897334 -0.31472325
H  -1.25167541 -3.86850076 -2.03185081
H  -3.76294395 -2.24237240 -2.03752103
H  -2.41087382 -2.06749385 -3.13501499
H  -3.00611179 -0.64615986 -2.24868297
H   0.21186823 -1.77133635  3.37411020
H   2.57891713 -1.19574934  3.16344256
H   1.73207326 -0.39758077 -3.50926652
H  -0.63162417 -0.98436193 -3.26294528
N   0.78476767  3.25633828  0.45935859
C   0.23573281  2.12453403  1.26058648
C   1.48702233  2.71405691 -0.73828466
C  -0.32916000  4.14414688  0.01950330
C   1.74477827  4.03600592  1.29025098
H   2.31128465  2.09033536 -0.39999259
H  -0.43766273  1.55261276  0.62693394
H   1.06413780  1.50521744  1.59967629
H  -0.30270442  2.53108105  2.11506755
H   1.21670349  4.42482309  2.15960460
H   2.55162259  3.37577799  1.60378143
H   2.13994356  4.85535553  0.69193565
H  -1.01274833  3.56681457 -0.59832864
H  -0.84441714  4.52213248  0.90056289
H   0.09081011  4.96878728 -0.55407526
H   0.77861482  2.12830108 -1.32190156
H   1.86376261  3.54731697 -1.32938563
B  -3.36837404  1.85744592 -0.43668341
F  -3.30950336  2.53807151  0.79359848
F  -2.26476931  0.96722835 -0.52809783
F  -4.56305951  1.12222265 -0.51833092
F  -3.29962274  2.77956036 -1.49751778

