62
Total Energy                               R     -1.798402733810628E+03
C   0.26606853  0.48754362  0.18462272
C   1.08874948  1.41837347  1.08690827
C   0.73593208  0.69338294 -1.27560455
N   0.45877068 -0.87146512  0.73050378
O   1.81234385 -1.21260963  0.70064883
C  -0.33095610 -1.95906616  0.11706043
C   0.17743214 -2.42850893 -1.26666765
C  -0.21112875 -3.14291638  1.09504472
C  -1.78993698 -1.55454809 -0.00239936
C  -2.19547372 -0.19101650  0.10311816
C  -1.21083036  0.83632114  0.24293253
C  -1.61379715  2.14651324  0.34046047
C  -2.97012251  2.48406245  0.39710389
C  -3.92280595  1.51147494  0.27777998
N  -5.29055936  1.93023434  0.57940172
O  -5.65766132  3.02551200  0.20073302
O  -5.97560379  1.17966401  1.25601556
C  -3.58383737  0.15196777  0.03156316
C  -4.48849443 -0.89155390 -0.29511049
N  -5.86765249 -0.62873817 -0.70652661
O  -6.07089729  0.34196080 -1.41799234
O  -6.72918881 -1.42062879 -0.37798725
C  -4.08458660 -2.19445307 -0.40842230
C  -2.73965086 -2.52413904 -0.23467953
H   2.11846045  1.06589962  1.08571602
H   0.71567956  1.39335035  2.11566155
H   1.08029597  2.45184514  0.73588308
H   1.70872799  0.21699384 -1.40529453
H   0.83735007  1.75956004 -1.49656223
H   0.03736932  0.27424811 -2.00149925
H   1.26778611 -2.47061891 -1.22771117
H  -0.12206345 -1.76381566 -2.07737158
H  -0.20901392 -3.42505912 -1.49804211
H   0.84766799 -3.36037518  1.23654404
H  -0.70131313 -4.04443135  0.72222845
H  -0.64420567 -2.88554692  2.06622444
H  -0.88883358  2.94520379  0.42040729
H  -3.26658150  3.50987799  0.57886737
H  -4.80278589 -2.96120532 -0.67167440
H  -2.45350421 -3.56344887 -0.33254517
N   4.93330148 -1.93844878  0.15149021
C   4.33768669 -1.33775912 -1.07852386
C   4.81596124 -0.95818034  1.27173900
C   4.17043448 -3.17090586  0.50412233
C   6.36224464 -2.27127611 -0.08586537
H   5.37272305 -0.06223520  1.00504392
H   3.29338501 -1.11328657 -0.84473394
H   4.89222152 -0.43401717 -1.32456038
H   4.41733427 -2.06120199 -1.88987892
H   6.42451414 -2.98887607 -0.90308956
H   6.89615618 -1.35869940 -0.34719817
H   6.78020600 -2.70203866  0.82306219
H   3.13290353 -2.87233606  0.67336971
H   4.24699378 -3.87509070 -0.32391683
H   4.60739921 -3.60486477  1.40301608
H   3.75348859 -0.73941594  1.40446225
H   5.23950873 -1.40897777  2.16898429
B   5.11587221  2.60122472 -0.34813507
F   3.95791572  2.19892656 -1.04110356
F   5.45952557  3.91651220 -0.72933057
F   4.87702103  2.56341955  1.04111145
F   6.18247927  1.73095054 -0.66637050

