62
Total Energy                               R     -1.798302728470841E+03
C   0.94733987  1.78365522  1.37119518
C   1.75340360  0.73354044  2.15390121
C   1.03038029  3.14797872  2.07594438
N   1.58317896  1.89379063  0.03752038
O   2.81352856  2.21130540  0.04217521
C   0.82310617  2.12268923 -1.21614834
C   0.41875350  3.60829412 -1.29670364
C   1.74034133  1.77194809 -2.38865620
C  -0.44143290  1.28138840 -1.20702319
C  -1.10376576  0.98188222  0.02006877
C  -0.49095034  1.30572662  1.26346181
C  -1.18419075  1.11084176  2.43433588
C  -2.42391115  0.46872868  2.43719536
C  -2.97942187  0.05728797  1.25813899
N  -4.11984969 -0.85211033  1.39035383
O  -4.95053361 -0.61377289  2.24392540
O  -4.13663733 -1.83945886  0.67505920
C  -2.39389561  0.35987523  0.00209937
C  -2.96948571  0.11276974 -1.27289867
N  -4.38360043 -0.23289542 -1.43759688
O  -5.19011718  0.35216027 -0.73349230
O  -4.68545390 -1.02762729 -2.30417789
C  -2.28666758  0.33215088 -2.43393191
C  -1.01267451  0.90976470 -2.39691828
H   2.79989477  1.03403664  2.20440176
H   1.67995304 -0.24061955  1.66815995
H   1.37359982  0.64533562  3.17237202
H   2.06684636  3.48946690  2.07600817
H   0.70174640  3.06033671  3.11273030
H   0.41094311  3.89751516  1.58114718
H   1.30598895  4.23836340 -1.19617952
H  -0.29579421  3.87354108 -0.51508162
H  -0.04639856  3.80883081 -2.26444619
H   2.68142546  2.30957557 -2.29130344
H   1.28262113  2.07339365 -3.33059489
H   1.94767860  0.70055098 -2.42616388
H  -0.74716874  1.37538477  3.38889862
H  -2.90777715  0.23015330  3.37608102
H  -2.75733128  0.12421482 -3.38693661
H  -0.52427055  1.11553300 -3.33924741
N   5.15821929 -1.08361276 -0.07579614
C   5.66184542  0.10471318  0.67038772
C   4.22368946 -0.62959492 -1.14578489
C   6.30401450 -1.81319464 -0.68902316
C   4.43565706 -1.99017281  0.86194101
H   3.39361558 -0.10716426 -0.67909556
H   6.20899613  0.74369370 -0.02079866
H   4.80987079  0.64323206  1.08143186
H   6.31843215 -0.23712335  1.46893287
H   5.13315165 -2.32652143  1.62735153
H   3.61526118 -1.43937535  1.31670220
H   4.05261991 -2.84010780  0.30018141
H   6.81385876 -1.14376704 -1.37995675
H   6.98331072 -2.12669795  0.10186329
H   5.91947841 -2.68157334 -1.22131585
H   4.76097962  0.04199859 -1.81355540
H   3.86748399 -1.50132314 -1.69124375
B   0.25015755 -2.53419720 -0.06591585
F  -0.28806396 -2.20340424  1.19432741
F   0.91280236 -3.78021246  0.02386208
F  -0.78488736 -2.62266765 -1.01802945
F   1.17297748 -1.54800371 -0.46566414

