53
Total Energy                               R     -9.646477799755057E+02
C   0.31601636  0.99459304  1.24777043
C  -0.84513449  1.93891670  0.91296127
C   0.76013294  1.19619724  2.70695384
N  -0.20199196 -0.39233222  1.10106104
O  -1.29784476 -0.63832995  1.70270709
C   0.60137371 -1.58785890  0.73060719
C   1.04396812 -2.29401193  2.02304419
C  -0.32291464 -2.50327018 -0.08522359
C   1.81544249 -1.20105086 -0.09650782
C   2.19870526  0.15564927 -0.28592201
C   1.49450110  1.23459140  0.31911607
C   1.93372517  2.52186769  0.11808254
C   3.05404337  2.80435576 -0.68930073
C   3.74414612  1.78693364 -1.28599384
C   3.34230050  0.44280122 -1.09117309
C   4.07650099 -0.61892197 -1.67280091
C   3.70353074 -1.91544948 -1.45181860
C   2.57257454 -2.20067195 -0.66183017
H  -1.70392774  1.72869272  1.54903510
H  -1.14113720  1.83234516 -0.13294506
H  -0.55369627  2.97471010  1.08505859
H  -0.06022126  0.95645426  3.38725236
H   1.04441140  2.23946054  2.85994712
H   1.61939329  0.56814943  2.95024313
H   0.17444985 -2.53051742  2.63974085
H   1.72955397 -1.67059009  2.60019726
H   1.55461870 -3.22675026  1.77601429
H  -1.22209238 -2.74199167  0.48231193
H   0.18436621 -3.43962372 -0.31742519
H  -0.61137369 -2.02469199 -1.02396411
H   1.42622994  3.35196480  0.59501733
H   3.36349042  3.83499121 -0.82636727
H   4.61238766  1.98943749 -1.90535624
H   4.94221575 -0.38348216 -2.28405433
H   4.27005966 -2.73335910 -1.88399539
H   2.30705961 -3.23991916 -0.50424326
N  -4.35040152  0.13532281 -0.85608485
C  -4.52173227  0.02549262  0.62050913
C  -3.10731965 -0.57726645 -1.26762281
C  -5.52298170 -0.47813984 -1.54062992
C  -4.24937560  1.57297287 -1.23547819
H  -2.25915568 -0.10995721 -0.77437472
H  -4.57824845 -1.02794904  0.88890685
H  -3.66762418  0.49118190  1.10727931
H  -5.44096394  0.53651270  0.90232874
H  -5.16780165  2.07713869 -0.93945766
H  -3.39729519  2.01202771 -0.71981393
H  -4.11325962  1.64188359 -2.31335937
H  -5.58652980 -1.52635956 -1.25404642
H  -6.42357627  0.05074292 -1.23375795
H  -5.38385847 -0.39072047 -2.61670891
H  -3.18980995 -1.62070997 -0.96977981
H  -3.00317087 -0.49974515 -2.34863105

