41
Total Energy                               R     -1.174867715835277E+03
C   1.75961809 -0.01424701  1.13965447
C   1.34034242 -0.79731335  2.38793261
C   3.22808760  0.44259577  1.29142910
N   1.75755595 -0.99570188 -0.01160595
O   2.05973605 -2.10939478  0.21558019
C   1.45771175 -0.59937492 -1.44172228
C   2.66811188  0.22731564 -1.92980433
C   1.33581457 -1.87732449 -2.25323289
C   0.21516591  0.27604832 -1.41626287
C   0.01404445  1.17334848 -0.33144140
C   0.80444199  1.13069286  0.84786287
C   0.63410430  2.08808427  1.81818340
C  -0.35206814  3.08586809  1.69120358
C  -1.18071880  3.09903912  0.60314724
C  -1.01728989  2.14739323 -0.43144564
C  -1.86038210  2.15373517 -1.57105574
C  -1.67602087  1.24430449 -2.57319080
C  -0.62249461  0.30755131 -2.50020847
H   2.04986472 -1.59453719  2.60611350
H   0.34027631 -1.21178906  2.27065013
H   1.33823344 -0.10805038  3.23092464
H   3.88405728 -0.42492544  1.37929481
H   3.28436026  1.01465107  2.21781054
H   3.55822165  1.07684799  0.47255273
H   3.60299275 -0.31177643 -1.76605733
H   2.71610356  1.21046126 -1.46510553
H   2.52312695  0.36642064 -3.00200697
H   2.25834074 -2.45502117 -2.20012501
H   1.17995535 -1.61349916 -3.29768501
H   0.50164558 -2.49218744 -1.91358828
H   1.24100197  2.07310600  2.71669806
H  -0.46410516  3.82305607  2.47841727
H  -1.96859208  3.83992976  0.51287208
H  -2.65044245  2.89553680 -1.63118831
H  -2.32276948  1.24450855 -3.44349022
H  -0.47772263 -0.36829122 -3.33293879
B  -2.19298865 -1.64611017  0.74396719
F  -2.07355377 -0.60382445  1.68369910
F  -2.83200789 -2.75029818  1.34689512
F  -2.95294433 -1.20528112 -0.35613553
F  -0.90829366 -2.04227628  0.30524383

