53
Total Energy                               R     -9.647682653543816E+02
C   1.91448969 -0.19004216  1.27223790
C   1.72715630 -0.80699580  2.66609530
C   3.32930475  0.43135621  1.20991774
N   1.64478765 -1.27571506  0.29730363
O   2.53593410 -2.35469669  0.50305043
C   1.62113794 -0.91916284 -1.14176347
C   3.00108242 -0.66362393 -1.78838640
C   0.97878025 -2.12389300 -1.85366623
C   0.74240806  0.30718964 -1.35468992
C   0.38461373  1.14893414 -0.26403023
C   0.90096800  0.92467748  1.04621610
C   0.51035950  1.76093243  2.06471662
C  -0.39965396  2.81917047  1.85048320
C  -0.90030736  3.05645610  0.60152943
C  -0.50554620  2.23989273 -0.48835933
C  -0.98299313  2.49856129 -1.79568310
C  -0.58035062  1.71203616 -2.84007638
C   0.27927874  0.61866335 -2.61370486
H   2.44549517 -1.61222399  2.81577839
H   0.71925648 -1.21699043  2.78047558
H   1.89395321 -0.07542935  3.45783336
H   4.08932197 -0.35158950  1.14318943
H   3.51988023  1.01278100  2.11663838
H   3.44760356  1.10575905  0.36088554
H   3.69697718 -1.46219526 -1.52456158
H   3.43539691  0.28949495 -1.48691654
H   2.90124589 -0.64775530 -2.87728278
H   1.58061791 -3.01779782 -1.68619165
H   0.90809673 -1.97103078 -2.93189587
H  -0.02713794 -2.30683551 -1.46489860
H   0.89822891  1.62488281  3.06666775
H  -0.69166422  3.44531998  2.68751910
H  -1.59217138  3.87405232  0.42233561
H  -1.66328460  3.33041034 -1.95211208
H  -0.93030138  1.91427240 -3.84729017
H   0.56210671  0.00764596 -3.46335622
N  -3.00416060 -1.23404839  0.39250150
C  -2.83077831 -0.49041733 -0.88783867
C  -2.93561585 -2.69887131  0.12860773
C  -1.91681589 -0.85145940  1.33861181
C  -4.32651593 -0.89492581  0.98780822
H  -3.73181001 -2.96864477 -0.56296767
H  -1.85705394 -0.73804181 -1.30601278
H  -3.62268006 -0.78710082 -1.57364457
H  -2.89167542  0.57616978 -0.68149482
H  -4.35854134  0.17622186  1.17987130
H  -5.10980304 -1.17409647  0.28502146
H  -4.44310307 -1.44704030  1.91872271
H  -0.95806251 -1.11708521  0.89526075
H  -1.96789925  0.22261311  1.51102688
H  -2.06587742 -1.39052437  2.27307729
H  -1.96517254 -2.92985833 -0.30750163
H  -3.05981749 -3.23033631  1.07063129

