52
Total Energy                               R     -1.235513006069864E+03
C   2.20536253 -0.22723556  1.51453484
C   1.90843424  1.16063013  2.07101946
C   2.71644777 -1.18146874  2.60607748
N   0.92822498 -0.84160584  0.99023545
O  -0.05764009 -0.90008325  1.62217909
C   1.04983501 -1.42483698 -0.39908384
C  -0.11351120 -0.93707310 -1.25363000
C   1.02217541 -2.95184971 -0.22246555
C   2.40380551 -0.89846850 -0.78642207
C   3.03875758 -0.24850304  0.26285065
C   4.30346647  0.29681822  0.10104113
C   4.92364483  0.17725293 -1.13859513
C   4.28495183 -0.47476001 -2.19310705
C   3.01570710 -1.01907755 -2.02509334
H   1.19800110  1.10662832  2.89722223
H   1.52924458  1.82335798  1.29518899
H   2.84964949  1.56170696  2.45137856
H   2.03016756 -1.19245776  3.45507644
H   3.68324090 -0.79842602  2.93692667
H   2.85152647 -2.19427825  2.22458215
H  -1.06316731 -1.27596365 -0.84030016
H   0.00757134 -1.37668846 -2.24528217
H  -0.11125142  0.14760729 -1.34599562
H   0.05725888 -3.27407774  0.17399393
H   1.82725648 -3.29501892  0.42838488
H   1.16173354 -3.38887516 -1.21259550
H   4.79693368  0.80721507  0.92134542
H   5.91233881  0.59841679 -1.28592728
H   4.78064071 -0.55706896 -3.15438289
H   2.51553812 -1.52493744 -2.84422803
N  -4.49709869 -0.88377518 -0.11703090
C  -3.67533699  0.10692809 -0.87210095
C  -5.69630274 -1.25429922 -0.92024393
C  -3.68428719 -2.10349234  0.15249478
C  -4.92931838 -0.27945900  1.17542687
H  -6.28412871 -0.35652013 -1.10363330
H  -3.35292790 -0.34676109 -1.80787840
H  -4.28807684  0.98416969 -1.07127759
H  -2.81495577  0.38077810 -0.26684634
H  -4.04274177 -0.01834519  1.75110130
H  -5.51627872  0.61291589  0.96464588
H  -5.53088761 -1.00687341  1.71804488
H  -3.37081410 -2.53160102 -0.79814875
H  -2.81586714 -1.82020158  0.74382048
H  -4.29611926 -2.81673919  0.70248056
H  -5.36433913 -1.68575067 -1.86305648
H  -6.28245265 -1.98097760 -0.36008381
B  -0.76360848  2.69124373 -0.24420940
F  -1.03288627  1.64322735  0.66436002
F   0.51308511  2.50023221 -0.81472250
F  -1.73585707  2.68968171 -1.26456036
F  -0.79420900  3.92177505  0.44052351

