52
Total Energy                               R     -1.235704113158498E+03
C   0.51213396 -1.58044739  1.25405353
C  -0.11706258 -0.49648143  2.12844335
C   0.57628496 -2.91662064  1.99545581
N  -0.26943360 -1.73875622  0.00278746
O  -1.46602169 -2.15045789  0.00931903
C   0.49032944 -1.55225467 -1.25816908
C  -0.15418035 -0.45247550 -2.10080486
C   0.54497506 -2.87347594 -2.02690117
C   1.83401501 -1.15125031 -0.70368602
C   1.84699898 -1.16981640  0.68556666
C   2.99620227 -0.83267352  1.38776810
C   4.13754282 -0.47394267  0.67629057
C   4.12365415 -0.45247285 -0.71823333
C   2.96902279 -0.79170478 -1.41774036
H  -1.13445053 -0.77895523  2.41150819
H  -0.14669016  0.46083140  1.60497804
H   0.46998740 -0.37327228  3.04214978
H  -0.42488173 -3.22737095  2.30437230
H   1.19604558 -2.81304276  2.88974172
H   1.00763535 -3.69639599  1.36259791
H  -1.17615671 -0.72955968 -2.37215048
H   0.41722678 -0.31216930 -3.02192461
H  -0.17427070  0.49496327 -1.55951598
H  -0.46063414 -3.18059332 -2.32487486
H   0.98863541 -3.66438293 -1.41679865
H   1.14923607 -2.75078852 -2.92935037
H   3.00518161 -0.84283533  2.47354949
H   5.04286532 -0.20410099  1.21060663
H   5.01825956 -0.16601156 -1.26186388
H   2.95726897 -0.77082921 -2.50333128
N  -4.04686413  0.35896434  0.00128603
C  -2.76224322  1.11743612  0.01148809
C  -5.18864927  1.31503591 -0.02803450
C  -4.09517840 -0.51502851 -1.20653735
C  -4.12960053 -0.48429849  1.22867259
H  -5.13950711  1.94699416  0.85710043
H  -2.70995933  1.72614742 -0.88897995
H  -2.73841624  1.74930463  0.89714532
H  -1.94188639  0.40645089  0.03365861
H  -3.28952095 -1.17719690  1.22795139
H  -4.08594484  0.16580776  2.10105393
H  -5.07178360 -1.03017007  1.21351180
H  -4.02870025  0.11345094 -2.09317365
H  -3.25497084 -1.20654172 -1.16557443
H  -5.03748223 -1.06098271 -1.20304106
H  -5.11199693  1.92322432 -0.92776848
H  -6.11882042  0.74934958 -0.03515105
B   1.25124566  3.04483511  0.01282959
F  -0.06873275  2.54680433  0.03417328
F   1.95505067  2.56750720  1.13671671
F   1.89543106  2.62321785 -1.16785537
F   1.21539433  4.45686310  0.04813943

