32
Total Energy                               R     -6.521574336414096E+02
C   0.77085690  1.33568102  0.00687957
C   1.77852728 -1.92682762  1.21483058
C   1.78935904 -1.75248802 -1.29734303
N   1.80486576  0.27510035  0.10474942
O   3.04438140  0.54559334  0.09479885
C  -1.78733174  0.94531287 -0.00040291
C   0.86461982  2.26852353  1.21193082
C   0.94595543  2.10897427 -1.30150457
C  -0.47828349  0.49131500  0.00774081
C  -0.18063677 -0.86457955  0.00946952
C   1.30430461 -1.11947794  0.00850758
C  -1.21128314 -1.79455875  0.00579514
N  -4.15995252  0.44205867 -0.07860670
C  -2.52888438 -1.35520543 -0.00288811
C  -2.83308646  0.01496964 -0.00770380
H   1.83057215  2.77920148  1.22533568
H   2.86915281 -1.99670826  1.22660443
H   1.44252947 -1.47111837  2.14922240
H   1.90614149  2.63056195 -1.31117236
H   1.47380143 -1.16062043 -2.15992160
H   2.87919892 -1.83471279 -1.30403634
H   0.07969521  3.02603214  1.15057570
H   0.74246689  1.71692426  2.14705480
H  -4.31630367  1.36735268  0.29576414
H   0.15060594  2.85209283 -1.39626153
H  -2.00828011  2.00927952 -0.00108294
H   0.89901677  1.43776701 -2.16240789
H   1.37326926 -2.94007576  1.15812223
H   1.36927329 -2.75671755 -1.39341387
H  -0.99788626 -2.85931940  0.01110300
H  -3.34087200 -2.07655830 -0.00518525
H  -4.82652807 -0.21807491  0.29644001

