32
Total Energy                               R     -6.522670125963321E+02
C   0.18632586 -0.86564295 -0.03581594
C   2.53916561 -1.34938082  0.01846985
C   1.21882675 -1.79185203 -0.00985725
N   4.16738660  0.45471368  0.10480549
O  -3.10329409  0.54773836 -0.15650785
C   0.47977808  0.49266571 -0.03565082
C   2.83788172  0.01957838  0.01986874
C   1.78880198  0.94779967 -0.00830925
C  -0.79688337  1.29852645 -0.04981386
C  -1.30681118 -1.08144404 -0.04771824
C  -1.74475322 -2.13276555 -1.06820726
C  -1.79721269 -1.52568723  1.34201829
N  -1.76875270  0.26183895 -0.49688625
C  -1.05992425  1.90470201  1.34028199
C  -0.76394996  2.43629684 -1.07069369
H   3.35338702 -2.06873244  0.03486405
H   1.01131719 -2.85851853 -0.01541050
H  -1.51511497 -0.82578838  2.12983162
H   4.83362890 -0.20576687 -0.27129979
H  -1.35042618 -1.90285892 -2.06175031
H  -1.39613994 -3.13030704 -0.78238972
H   2.01209676  2.01201087 -0.01250759
H  -1.06212956  1.15426189  2.13205915
H  -0.27701318  2.63222442  1.57505978
H   4.31810285  1.37217104 -0.29155340
H  -0.03637821  3.20267628 -0.78581170
H  -0.49977415  2.06432986 -2.06430436
H  -1.35663447 -2.49678747  1.58840011
H  -2.83703686 -2.16795697 -1.13101068
H  -2.88422920 -1.63881589  1.35830163
H  -2.02008827  2.42626418  1.35961204
H  -1.74512421  2.91704017 -1.13289765

