32
Total Energy                               R     -6.519678921995151E+02
C  -0.18848390 -0.86430419 -0.00647609
C  -2.53098030 -1.35261180 -0.01389110
C  -1.21741599 -1.79554663 -0.00651601
N  -4.15579604  0.44412600 -0.09201666
O   2.95661373  0.52370752 -0.18798462
C  -1.78940273  0.95024043 -0.01679929
C  -2.83540987  0.01931101 -0.02132970
C   0.96989310  2.07375432  1.33868562
C  -0.48480369  0.48995383 -0.01021516
C   1.28764338 -1.13773254  0.00513985
C   1.80745586 -1.91040759 -1.20450000
C   1.80369858 -1.72402614  1.32467303
N   1.81597303  0.27560086 -0.07861371
C   0.90816286  2.27473020 -1.19088346
C   0.75158170  1.34404142  0.00783070
H  -3.34342234 -2.07272062 -0.01524051
H   1.38224722 -2.91424120 -1.15522465
H   1.49174079 -1.44110636 -2.13747653
H  -1.00230227 -2.85912637 -0.00015516
H   1.47928817 -1.12625424  2.17766830
H   1.38155947 -2.72617542  1.41622721
H  -4.32032426  1.37620209  0.26023739
H   0.80969247  1.72886264 -2.13035593
H  -2.00488514  2.01445128 -0.01861263
H  -4.83189924 -0.21562871  0.26504026
H   0.17687417  2.81753432  1.43131898
H   0.90786120  1.38528422  2.18290333
H   2.89535054 -1.98914803 -1.17704592
H   2.89264393 -1.79615867  1.31298282
H   1.93661639  2.57987141  1.34121082
H   1.87061395  2.78707054 -1.15773929
H   0.11256223  3.01912100 -1.13175925

