51
Total Energy                               R     -1.122421144489823E+03
C   1.53460247 -1.05606248 -0.96132888
C   0.10675328 -1.57699570 -0.99832062
C   1.73665293  0.00344760 -2.05778357
N   1.73591678 -0.36946071  0.38326421
O   0.78134484 -0.09310706  1.01702422
C   3.10502758 -0.04270845  0.96484111
C   3.61201314  1.22790077  0.26138183
C   2.92036520  0.22646811  2.44986843
C   4.01787523 -1.25930378  0.72657007
C   3.97504137 -1.80394645 -0.69256926
C   2.55398371 -2.20524260 -1.05511739
H  -0.62204796 -0.76608457 -1.02320887
H  -0.10664639 -2.23282712 -0.15137379
H   0.00095985 -2.15932322 -1.91544981
H   1.18454640  0.91646319 -1.83418151
H   1.33032841 -0.42669062 -2.97507461
H   2.78262361  0.24165883 -2.23261777
H   2.84883941  2.00684313  0.25316613
H   3.95745959  1.04720334 -0.75337468
H   4.46073346  1.58281945  0.84906995
H   2.35367462  1.13979118  2.63570135
H   3.91639594  0.35064932  2.87862567
H   2.43328078 -0.60993731  2.95578248
H   3.72834076 -2.04678045  1.42975023
H   5.02542755 -0.93612782  0.99928703
H   4.61915868 -2.68440425 -0.75333052
H   4.37377976 -1.07766182 -1.40544330
H   2.22074669 -3.01417593 -0.39687975
H   2.49387240 -2.57625272 -2.08112273
N  -3.94048585 -1.25220422  0.30573010
C  -3.55383141 -2.49449633 -0.42145400
C  -5.30509187 -1.41636973  0.88236557
C  -2.96655323 -0.99518026  1.40481004
C  -3.93350332 -0.10253277 -0.64411813
H  -6.00744550 -1.60129779  0.07145908
H  -3.55321743 -3.32572651  0.28184545
H  -4.27620111 -2.67428638 -1.21565207
H  -2.56002930 -2.35703193 -0.84295100
H  -2.92908536  0.01225684 -1.04553164
H  -4.64238679 -0.30898100 -1.44430165
H  -4.22516651  0.79702590 -0.10534296
H  -2.97270049 -1.84817153  2.08139917
H  -1.97794792 -0.86411542  0.97095877
H  -3.26817713 -0.09293456  1.93329851
H  -5.29410536 -2.25918320  1.57154863
H  -5.57191826 -0.50214742  1.41003212
B  -0.91264696  2.61666889 -0.29730836
F  -1.19693505  1.73715414 -1.36323967
F  -1.64336742  2.23162132  0.84328146
F   0.46938852  2.57430334 -0.01057681
F  -1.27337975  3.92944668 -0.66652845

