51
Total Energy                               R     -1.122602485115017E+03
C   0.02269621  1.54435982 -0.71518117
C   0.12334854  1.26861302 -2.21546991
C  -1.20036171  2.43057800 -0.44367034
N  -0.15705924  0.23418174 -0.02108101
O  -1.04132447 -0.54318918 -0.50913532
C   0.27623616 -0.05787468  1.37802711
C  -0.86478917  0.29313450  2.34180020
C   0.57433026 -1.55437500  1.47190781
C   1.54882543  0.72971631  1.71412758
C   1.50038282  2.18274753  1.26836625
C   1.31389380  2.22319313 -0.24055549
H  -0.81203522  0.87675444 -2.61763835
H   0.92160742  0.55292296 -2.42814497
H   0.35524471  2.20313667 -2.73390206
H  -2.11795872  1.92054528 -0.74530643
H  -1.11757729  3.35047681 -1.02934342
H  -1.28726158  2.70895832  0.60832167
H  -1.77190754 -0.25409268  2.07588785
H  -1.09180568  1.36082178  2.34808392
H  -0.58201586  0.00275854  3.35758265
H  -0.32795664 -2.15412901  1.34353817
H   0.99477423 -1.77201083  2.45769868
H   1.30399188 -1.85484740  0.71638776
H   2.39989784  0.24429561  1.22676114
H   1.71340941  0.64920798  2.79278013
H   2.43566876  2.68223301  1.53774005
H   0.69694327  2.72479795  1.77865105
H   2.16726046  1.72344922 -0.71169801
H   1.30320539  3.25198006 -0.61279684
N  -4.61556182 -0.72840910 -0.28901291
C  -4.38616756  0.41731262  0.63635957
C  -3.89007576 -1.92898504  0.22081011
C  -6.07464725 -1.02143858 -0.36576952
C  -4.10170959 -0.37608556 -1.64552847
H  -2.82665618 -1.69734464  0.26615615
H  -4.74787321  0.14505317  1.62666343
H  -3.32012533  0.62749482  0.67014040
H  -4.92807428  1.28391197  0.26096686
H  -4.62867489  0.51010046 -1.99633038
H  -3.03210574 -0.18425850 -1.57028567
H  -4.28934863 -1.21348253 -2.31586210
H  -6.43529385 -1.26624233  0.63195012
H  -6.58807175 -0.13932507 -0.74503471
H  -6.22767397 -1.86393125 -1.03805378
H  -4.27337639 -2.17081363  1.21099882
H  -4.06821420 -2.75740384 -0.46329102
B   4.45830457 -0.94047039 -0.48956261
F   4.76558598  0.40197997 -0.18247593
F   5.50682666 -1.49773116 -1.25372628
F   4.30930946 -1.67456380  0.70604429
F   3.26023910 -0.99512243 -1.23010993

