41
Total Energy                               R     -1.398402618601414E+03
C   2.64781986  0.28007292 -1.07240286
C   2.90398145  1.77063441 -1.27623968
C   3.62412249 -0.58753540 -1.87861641
N   2.86440461 -0.04900319  0.37669355
O   3.83509850  0.25167248  0.95929828
C   1.74168804 -0.83745066  1.01233503
C   1.38743757 -0.18043349  2.34164917
C   2.31779326 -2.25168956  1.20155242
C   0.69951689 -0.73843840 -0.08149764
C   1.21376483 -0.13592444 -1.22491542
C   0.43981126  0.07262720 -2.35113596
C  -0.88671024 -0.32256525 -2.32109332
C  -1.42457730 -0.91792074 -1.18300521
C  -2.85978066 -1.31714183 -1.24943230
O  -3.68954780 -0.73306769 -1.91036853
O  -3.13055228 -2.40794529 -0.53606034
C  -0.63634506 -1.12847922 -0.04365788
C  -1.26579916 -1.64059668  1.22131513
O  -2.04711422 -0.99242743  1.87606849
O  -0.85068380 -2.85668293  1.54959850
H   3.94631133  2.00835512 -1.06108682
H   2.24454383  2.37358007 -0.65186010
H   2.70261520  1.99608263 -2.32445580
H   4.65297219 -0.32025968 -1.63332633
H   3.44050281 -0.37785790 -2.93354654
H   3.45907863 -1.64950815 -1.69377919
H   2.27201485 -0.12304544  2.97711129
H   0.65385701 -0.80487244  2.85201957
H   0.96789390  0.81421201  2.19131962
H   3.17606067 -2.21000837  1.87395007
H   2.61253711 -2.69396630  0.24931139
H   1.53792300 -2.86357892  1.65138364
H   0.85744326  0.54429133 -3.23301856
H  -1.51799839 -0.17307191 -3.18848353
H  -4.07548061 -2.61147799 -0.58764605
H  -1.25445610 -3.12968850  2.38731066
B  -1.41684358  2.70618540  0.64335671
F  -1.84219514  4.04427607  0.79695915
F  -2.43039970  1.96440885  0.00515212
F  -0.24313417  2.67792365 -0.13738157
F  -1.15053494  2.15223182  1.91235215

