53
Total Energy                               R     -1.188309504403806E+03
C   2.41166634  1.08575528 -0.92636934
C   2.18089650  2.58858464 -1.09615093
C   3.50247655  0.64011437 -1.91596306
N   2.66065961  0.78927907  0.50558252
O   3.99077490  0.99556961  0.90344737
C   2.13276677 -0.56470269  0.83989010
C   1.72277070 -0.55756441  2.31410183
C   3.11428168 -1.72620590  0.60404357
C   0.96964189 -0.64331827 -0.13424826
C   1.15074557  0.29640845 -1.14923261
C   0.22505576  0.45258066 -2.16594353
C  -0.91754853 -0.33367369 -2.15760926
C  -1.12932056 -1.26517350 -1.14388490
C  -2.39217492 -2.04557000 -1.20567476
O  -3.41372595 -1.64227288 -1.72256663
O  -2.29406131 -3.25730583 -0.65818403
C  -0.17961828 -1.42805059 -0.11920316
C  -0.49228802 -2.30031655  1.05930654
O  -1.31524720 -2.00320874  1.89723982
O   0.23815131 -3.40699906  1.10889924
H   3.08056772  3.13823597 -0.80456429
H   1.35095279  2.92815418 -0.47077875
H   1.95758356  2.84271035 -2.13657516
H   4.43646258  1.17264530 -1.72257567
H   3.18614785  0.87651594 -2.93614390
H   3.70201695 -0.43086414 -1.86922930
H   2.57930933 -0.24012647  2.91514562
H   1.43037903 -1.54808673  2.67079419
H   0.90060398  0.13916236  2.49657696
H   4.01461952 -1.58219594  1.20531991
H   3.41266872 -1.81711779 -0.44107755
H   2.65411071 -2.66978049  0.90287344
H   0.37476130  1.18900349 -2.94819411
H  -1.66020495 -0.22608780 -2.93952430
H  -3.15210787 -3.70368823 -0.69023772
H   0.01860410 -3.90902555  1.90821369
N  -2.28860314  2.50444792  0.75118560
C  -3.29392702  1.56730300  0.17326670
C  -1.21139232  1.72252713  1.42124165
C  -1.69398802  3.32796638 -0.33967123
C  -2.94922688  3.39384534  1.74710999
H  -1.65550049  1.12340773  2.21412417
H  -2.80200464  0.94781746 -0.57344834
H  -3.69422366  0.94715477  0.97339833
H  -4.09017946  2.15019218 -0.28682076
H  -3.72943240  3.96423612  1.24630379
H  -3.38035526  2.77675588  2.53355266
H  -2.20169626  4.06608613  2.16458271
H  -1.20703174  2.66394378 -1.05202675
H  -2.49055344  3.88635012 -0.82863317
H  -0.96802635  4.01204463  0.09586449
H  -0.74309999  1.08120384  0.68053925
H  -0.48080417  2.41594124  1.83442151

