51
Total Energy                               R     -1.176715368558574E+03
C  -1.43484994 -1.42349400 -0.46636874
C  -0.28509195 -0.84109547 -1.29216919
C  -1.25061359 -2.92600029 -0.26675968
N  -1.52034400 -0.74130297  0.84395763
O  -0.58606935 -0.78125045  1.70182921
C  -2.70677828  0.13001464  1.00254883
C  -3.45663845 -0.23833016  2.28161677
C  -2.26481329  1.59637080  1.03599578
C  -3.46842791 -0.22403241 -0.25955171
C  -4.81590936  0.36569432 -0.51820919
N  -5.38868086 -0.07178783 -1.78907269
C  -2.77787887 -1.05642363 -1.03354447
H   0.67279366 -1.02342396 -0.80084606
H  -0.41475480  0.23452164 -1.43414423
H  -0.26238557 -1.31699378 -2.27594662
H  -0.29766289 -3.13312113  0.22712256
H  -1.24625780 -3.42679927 -1.23802104
H  -2.06010817 -3.34551645  0.33556438
H  -2.80922198 -0.10237512  3.15132363
H  -3.79668111 -1.27650957  2.25385083
H  -4.32726651  0.40969908  2.40499131
H  -1.60332904  1.76942361  1.88828180
H  -3.13430740  2.24857742  1.14330576
H  -1.73560368  1.86832827  0.12019401
H  -4.73328760  1.45938681 -0.44311014
H  -5.49394342  0.06276696  0.28589813
H  -4.80586515  0.26595829 -2.54879301
H  -6.28917992  0.37904756 -1.90547786
H  -3.09898485 -1.44568727 -1.99235903
N   1.86863086  2.62339573 -0.21664031
C   1.37327298  1.79256536  0.91777044
C   0.71405016  3.27623461 -0.89568352
C   2.79898466  3.66603700  0.29900419
C   2.58681528  1.75250134 -1.19009363
H   0.05707993  2.50269977 -1.28838850
H   0.84897353  2.43853267  1.61978173
H   0.69912041  1.03728059  0.52479012
H   2.22583528  1.32163703  1.40305455
H   3.42621090  1.28103322 -0.68428696
H   1.89529050  0.99708889 -1.55717357
H   2.93991631  2.37054626 -2.01408368
H   2.26240190  4.29538401  1.00703822
H   3.63512583  3.17469328  0.79334895
H   3.15587057  4.26273738 -0.53866937
H   0.18191676  3.89047888 -0.17124959
H   1.09180942  3.89447287 -1.70839250
B   3.72763042 -1.62802127  0.00634534
F   3.44909441 -1.58503073 -1.37546928
F   4.32845893 -2.86374572  0.32631812
F   4.61094921 -0.57785932  0.34020884
F   2.53115602 -1.48404703  0.73571877

