51
Total Energy                               R     -1.176716456419618E+03
C   0.13520641 -1.08539447  0.55100592
C  -0.50680071 -2.37468841  0.03667332
C   1.29309930 -1.39669170  1.49952203
N   0.60870332 -0.26689600 -0.58748077
O   1.42400213 -0.70967167 -1.45335033
C  -0.11928672  1.01066686 -0.76592996
C   0.86495203  2.17904146 -0.79684697
C  -0.93455831  0.95068958 -2.06076224
C  -0.99183043  0.99891301  0.47263783
C  -1.85949960  2.17217788  0.79117518
N  -2.68634811  1.95601255  1.97584576
C  -0.86117608 -0.13481051  1.15489770
H   0.24206436 -3.01390665 -0.43842797
H  -1.29763376 -2.15792429 -0.68373312
H  -0.94399284 -2.92486295  0.87373357
H   2.05597286 -1.99608208  0.99607800
H   0.92177289 -1.96932908  2.35324345
H   1.75271256 -0.47939362  1.87501344
H   1.57872250  2.05131838 -1.61431968
H   1.41557161  2.25849206  0.14361380
H   0.32602320  3.11476390 -0.96274500
H  -0.26718617  0.84974370 -2.92035252
H  -1.51205859  1.86888193 -2.18642082
H  -1.62460896  0.10416847 -2.04832572
H  -2.45168405  2.41796265 -0.10026992
H  -1.21630273  3.04010502  0.97105673
H  -3.33676219  1.19963705  1.78178646
H  -3.25263957  2.78403927  2.12243033
H  -1.38862488 -0.39055050  2.06580135
N   5.12023478 -0.07044147  0.07658089
C   4.78392045 -1.24868810 -0.77241739
C   6.42130997  0.50428857 -0.36683992
C   4.04963445  0.95870471 -0.05260118
C   5.22237675 -0.49832475  1.50071450
H   7.19190613 -0.25858872 -0.26976125
H   4.69716942 -0.92110344 -1.80680597
H   5.58006097 -1.98498716 -0.67596187
H   3.84011512 -1.66816774 -0.43153199
H   4.26737446 -0.92212723  1.80692427
H   6.01060162 -1.24460414  1.58586469
H   5.46059340  0.37184920  2.11011780
H   3.96568727  1.24708203 -1.09851283
H   3.11510427  0.52856110  0.29642948
H   4.31771762  1.82018735  0.55688325
H   6.32928954  0.81530316 -1.40608268
H   6.65795018  1.36075943  0.26194839
B  -4.63528878 -0.57968616 -0.22160014
F  -4.42629029 -0.53782311  1.17721238
F  -3.78415552 -1.54398547 -0.79373444
F  -5.97873335 -0.92311529 -0.47926031
F  -4.35889911  0.68587352 -0.77364704

