51
Total Energy                               R     -1.176529116023470E+03
C  -0.29078990  1.37001626  0.66046628
C   0.72758859  2.48646348  0.39228987
C  -1.46487868  1.86176066  1.50149037
N  -0.80518778  0.92274552 -0.68115654
O  -1.47437397  1.59005747 -1.37450466
C  -0.33999944 -0.45874405 -1.05801192
C  -1.53780984 -1.29372870 -1.49587543
C   0.66594774 -0.25734974 -2.20132353
C   0.29470818 -0.89096661  0.24260803
C   0.79914823 -2.28817232  0.39122646
N   1.48359838 -2.49196896  1.66234280
C   0.32362107  0.08919273  1.13787739
H   0.23123561  3.36022524 -0.03359768
H   1.52125842  2.14897470 -0.27605085
H   1.17026026  2.75924813  1.35164137
H  -1.93511892  2.73133253  1.03988954
H  -1.06594204  2.15486487  2.47413342
H  -2.20408890  1.07371122  1.64420179
H  -2.05304063 -0.82022780 -2.33254179
H  -2.23171007 -1.44549814 -0.67014605
H  -1.16168322 -2.26367719 -1.82555336
H   0.15877985  0.15209919 -3.07668782
H   1.08016524 -1.23351618 -2.45644405
H   1.47885212  0.40619711 -1.90210431
H   1.42285689 -2.52938858 -0.48105246
H  -0.05591155 -2.96965155  0.34332899
H   2.33934622 -1.94561047  1.66977336
H   1.76975486 -3.46283016  1.71787927
H   0.73478757  0.02646540  2.13633469
N   4.71158108  0.12769656 -0.01206355
C   6.15050946 -0.11043294  0.29433055
C   4.58554034  1.24023460 -0.99611924
C   4.11354185 -1.10988638 -0.58767394
C   3.98962734  0.49005436  1.23985200
H   5.01914818  2.14003149 -0.56357849
H   6.66515260 -0.37549700 -0.62760947
H   6.57512554  0.79991980  0.71367612
H   6.22286073 -0.92491636  1.01323159
H   4.09325794 -0.32637915  1.95262261
H   4.42619526  1.40078356  1.64587851
H   2.94066510  0.64890324  1.00071009
H   4.65442546 -1.36922168 -1.49624026
H   4.19723495 -1.91318597  0.14262644
H   3.06963579 -0.91204009 -0.81746446
H   5.11799222  0.96500179 -1.90485914
H   3.53035552  1.39844172 -1.21338069
B  -4.67722816 -0.22069722  0.19257168
F  -5.86642078  0.20401049  0.81986967
F  -3.79484358 -0.74144675  1.16401507
F  -4.97447917 -1.22251088 -0.75461047
F  -4.07105533  0.87422567 -0.45662077

