54
Total Energy                               R     -1.311179770669852E+03
C  -0.01854631 -0.56395416 -1.36672989
C  -0.12725196  0.56346812 -2.39358915
C   1.05012040 -1.56552149 -1.82303325
N   0.39491015  0.04032854 -0.06580635
O   1.38994661  0.83417227 -0.10793695
C   0.04265323 -0.50281432  1.27912606
C   1.13155949 -1.48412345  1.73233903
C  -0.01912916  0.66982291  2.25842479
C  -1.33473903 -1.17535886  1.23607746
C  -1.50144319 -2.09594868  0.02740201
C  -2.81268218 -2.83725201  0.07322994
O  -2.92618375 -4.04069612  0.09434706
O  -3.87442962 -2.02219109  0.08797035
C  -1.39048071 -1.23539196 -1.23123764
H   0.84512108  1.01541270 -2.59368508
H  -0.81069526  1.34129098 -2.04618188
H  -0.51717319  0.15626650 -3.33039584
H   2.02346469 -1.07522976 -1.89365886
H   0.79004376 -1.94429062 -2.81522090
H   1.13916130 -2.42006371 -1.14941251
H   2.10145374 -0.98448148  1.76745845
H   1.21479976 -2.35290860  1.07696126
H   0.89957839 -1.84105726  2.73947321
H   0.96141174  1.12774786  2.39513413
H  -0.36634239  0.30547425  3.22914665
H  -0.71715216  1.43294171  1.90788182
H  -2.10807667 -0.40375716  1.19886223
H  -1.46669363 -1.72504101  2.17232281
H  -0.73327468 -2.87132247  0.02873718
H  -4.68154000 -2.55788533  0.11783588
H  -2.16439996 -0.46426400 -1.19802390
H  -1.56062455 -1.83074782 -2.13280094
N   4.94879257  0.43310772  0.02757596
C   4.52753589 -0.99436921 -0.05369233
C   4.35259567  1.05600427  1.24581993
C   6.43506614  0.50948294  0.10403149
C   4.47122117  1.15908262 -1.18551444
H   3.26773963  1.01366719  1.15956915
H   4.87924429 -1.51344408  0.83657044
H   3.44239376 -1.03347440 -0.10677743
H   4.96420043 -1.43857224 -0.94658700
H   4.91735877  0.69693205 -2.06464230
H   3.38503815  1.08914856 -1.22519172
H   4.78115398  2.20035619 -1.11045157
H   6.76658053 -0.02046761  0.99563378
H   6.85624887  0.04618758 -0.78667351
H   6.72901487  1.55629631  0.15782887
H   4.69155582  0.50216206  2.11997747
H   4.68700254  2.09067905  1.30462115
B  -3.34375140  2.42231573  0.01086400
F  -3.62740808  1.69534081  1.18574093
F  -4.11286766  3.60721113 -0.00235969
F  -1.97428476  2.75394284 -0.02172022
F  -3.66958376  1.64214649 -1.11788169

