54
Total Energy                               R     -1.310996492480821E+03
C   0.28822507 -0.58083404 -0.58406942
C   0.96486359  0.55366897 -1.33953086
C   1.25117325 -1.77844733 -0.47402501
N   0.04342497 -0.11100322  0.84324401
O   0.74328467  0.72981544  1.28014218
C  -0.99962107 -0.72878709  1.76471035
C  -0.32787511 -1.96071049  2.40359576
C  -1.33262898  0.29262964  2.84307902
C  -2.24684673 -1.09480866  0.95238486
C  -1.94042973 -1.82023806 -0.35820084
C  -3.21376817 -2.18175023 -1.09089475
O  -3.45054548 -1.93850451 -2.24769091
O  -4.06809004 -2.84703178 -0.30534686
C  -1.04822356 -0.95263002 -1.23323579
H   1.96082578  0.76661197 -0.95412322
H   0.36170871  1.46146841 -1.31406841
H   1.06364465  0.23205684 -2.37785153
H   2.11746544 -1.53305905  0.14282151
H   1.59651464 -1.98575474 -1.48813520
H   0.78004179 -2.67808855 -0.08593083
H   0.64815246 -1.70688571  2.82189295
H  -0.22112107 -2.79731781  1.71678136
H  -0.98085583 -2.27196642  3.22081470
H  -0.49246060  0.46841752  3.51541942
H  -2.15592125 -0.11965374  3.42918854
H  -1.65816109  1.23759555  2.40819257
H  -2.80782205 -0.18226586  0.73859834
H  -2.86208727 -1.71084267  1.60918393
H  -1.45616005 -2.77982960 -0.14396629
H  -4.86111469 -3.06727238 -0.81805104
H  -1.57843590 -0.03449783 -1.49289518
H  -0.80046223 -1.46248696 -2.16579960
N   5.38077035  0.19117222 -0.25719351
C   4.69412021 -0.22291892 -1.51444737
C   6.43175783  1.19980627 -0.57446418
C   4.38875868  0.78654709  0.68346753
C   6.01210305 -1.00043784  0.37882740
H   7.14824404  0.75206293 -1.26094285
H   4.23130990  0.65332929 -1.96455489
H   5.43391541 -0.64755396 -2.19092690
H   3.93734691 -0.96577999 -1.27125801
H   5.23374293 -1.72516483  0.61167698
H   6.72991876 -1.42949349 -0.31799258
H   6.51518955 -0.68364136  1.29083582
H   3.92872041  1.65066098  0.20791272
H   3.63639704  0.03561025  0.91532147
H   4.90929273  1.08796466  1.59109282
H   5.95810205  2.06466338 -1.03555629
H   6.92765779  1.48977768  0.35038525
B  -2.79893831  2.55506373 -0.26380003
F  -3.31217709  1.73854426 -1.28977220
F  -2.71196646  3.88614136 -0.71476655
F  -3.64200763  2.48743739  0.86248753
F  -1.50552749  2.10166199  0.09411408

