54
Total Energy                               R     -1.311267534741841E+03
C   1.68254659  1.66272933 -0.94620783
C   0.84565774  2.02321624 -2.17871725
C   2.64092606  2.84709073 -0.72718507
N   0.73605671  1.46855425  0.19771546
O  -0.26267936  0.56498692 -0.21867632
C   1.36694298  0.91197765  1.43620938
C   2.26027459  1.93770170  2.15588490
C   0.23860924  0.57687787  2.41780573
C   2.14808417 -0.38129863  1.13218556
C   3.16815049 -0.18251706  0.00042792
C   3.89753475 -1.46399003 -0.30078582
O   5.08841276 -1.63893364 -0.16374080
O   3.09425160 -2.43998373 -0.74799490
C   2.46615378  0.37046857 -1.24870558
H   0.26351199  2.93389603 -1.99345574
H   0.15274466  1.22238494 -2.42792411
H   1.50084571  2.21105156 -3.03620916
H   2.11002119  3.69485474 -0.28352586
H   3.03912297  3.17439818 -1.69270526
H   3.50147582  2.62387649 -0.09907946
H   1.77942566  2.92052896  2.17242763
H   3.25246339  2.05731317  1.72479893
H   2.40860075  1.62381625  3.19383369
H  -0.35357961  1.47207351  2.64175850
H   0.65802924  0.20672223  3.35961247
H  -0.42728954 -0.17730621  2.00517322
H   1.43003700 -1.14709988  0.83060386
H   2.65433499 -0.73288115  2.03908807
H   3.94858000  0.50937367  0.32448318
H   3.62982042 -3.23016141 -0.91345325
H   1.75792420 -0.37578700 -1.61515415
H   3.19921297  0.55655721 -2.04273888
N  -3.28070402  1.86483015 -0.12702772
C  -2.30740113  2.90231512  0.32553224
C  -3.17795266  0.68342058  0.78002027
C  -4.66104339  2.41143784 -0.10609821
C  -2.91259486  1.43588277 -1.50840883
H  -2.14802719  0.32559217  0.70398734
H  -2.57342634  3.20669845  1.33782141
H  -1.31061369  2.45645517  0.29544154
H  -2.37684274  3.75698209 -0.34759474
H  -2.97369521  2.30138894 -2.16804233
H  -1.89056804  1.04947155 -1.44781273
H  -3.61551659  0.66907008 -1.83238517
H  -4.90570707  2.71217378  0.91193409
H  -4.70993498  3.27250382 -0.77170296
H  -5.35109594  1.63911465 -0.44336852
H  -3.41441326  1.00455374  1.79439248
H  -3.89308599 -0.06864940  0.45020918
B  -2.11557255 -3.20385885 -0.03709002
F  -0.82063129 -3.58373717 -0.44524438
F  -2.93044510 -4.35485806  0.06643481
F  -2.04848243 -2.56824461  1.21982975
F  -2.67234907 -2.32469298 -0.98860079

