35
Total Energy                               R     -3.594829157356473E+03
C  -1.88155466 -0.44298270  1.37593193
C  -2.30599224 -1.65284139  2.21322036
C  -1.68539654  0.81042221  2.22664527
N  -2.99768104 -0.17149960  0.39540588
O  -4.07196529  0.15457273  0.73172663
C  -2.61728460 -0.36736505 -1.05284790
C  -3.45443693 -1.53616628 -1.58052374
C  -2.90667681  0.93449794 -1.79683061
C  -1.15799287 -0.68933494 -0.90305153
C  -0.75689585 -0.73171505  0.42249879
C   0.55455584 -1.01184380  0.76957540
C   1.45156291 -1.24592409 -0.26272829
Br   3.26733246 -1.62117112  0.16728925
C   1.06818129 -1.20777961 -1.60012714
C  -0.25294981 -0.92582702 -1.92527483
H  -3.19543326 -1.41484170  2.79853777
H  -1.48245706 -1.88036999  2.89195466
H  -2.49616341 -2.52339505  1.58357517
H  -2.57557735  1.00670329  2.82582635
H  -1.45342344  1.67600573  1.60572621
H  -0.84420879  0.62064956  2.89519143
H  -4.51538151 -1.28246130 -1.56174840
H  -3.27736034 -2.44343169 -1.00087535
H  -3.14775858 -1.71088415 -2.61302981
H  -3.97542003  1.15260212 -1.78300066
H  -2.58879644  0.79431797 -2.83129617
H  -2.34846963  1.76625601 -1.36610449
H   0.86346799 -1.03722556  1.80778870
H   1.79119701 -1.39045489 -2.38566074
H  -0.56216282 -0.88993944 -2.96387431
B   1.28473247  2.74425168 -0.04129972
F  -0.05187301  2.57827320 -0.45953175
F   1.58623344  4.12313414  0.01450913
F   1.45708365  2.17848082  1.23838894
F   2.14815821  2.11358674 -0.95916808

