47
Total Energy                               R     -3.384613688977824E+03
C   0.08133957 -0.60179202 -1.16893515
C   0.66478240 -1.80405420 -0.42356337
C  -0.14234603 -0.92426447 -2.64416873
N   0.98645431  0.56643531 -1.03640399
O   2.16437536  0.55811835 -1.50316088
C   0.47243608  1.69107312 -0.21637350
C   1.27875930  1.80747055  1.07906281
C   0.52892122  2.98933127 -1.01734911
C  -0.93391463  1.21141696  0.03369909
C  -1.14959374 -0.05573263 -0.49138634
C  -2.37781190 -0.68721673 -0.36025670
C  -3.38278674 -0.00587978  0.31411451
Br  -5.08675239 -0.84002945  0.51424359
C  -3.18721379  1.26445370  0.84739810
C  -1.94723377  1.87896174  0.70496178
H   1.62980599 -2.08606368 -0.85257930
H  -0.01506743 -2.65444049 -0.51538278
H   0.80053752 -1.58138886  0.63710823
H   0.79719966 -1.22389047 -3.11428470
H  -0.54753350 -0.06175623 -3.17819315
H  -0.84859308 -1.75290035 -2.73408773
H   2.32776977  2.02040095  0.85831422
H   1.21990886  0.88621625  1.66280325
H   0.88028174  2.62660606  1.68239211
H   1.56444636  3.24611818 -1.25271194
H   0.10128003  3.80197966 -0.42568351
H  -0.03565511  2.90217494 -1.94848851
H  -2.54427392 -1.67694830 -0.77044358
H  -3.98913840  1.77399181  1.36807196
H  -1.78532676  2.86931533  1.11752408
N   4.99785438 -0.66837987  0.67103552
C   3.70865835 -0.87285543  1.38999287
C   6.12712051 -1.12487055  1.52861732
C   4.98382933 -1.45226166 -0.59752709
C   5.16279147  0.78036877  0.35818542
H   6.12616238 -0.54166720  2.44783359
H   3.59087177 -1.93388897  1.60365225
H   3.72756617 -0.30010525  2.31554125
H   2.90489928 -0.52622213  0.74846174
H   4.33820483  1.09520136 -0.27861762
H   5.15646806  1.34213370  1.29068672
H   6.11177781  0.91959330 -0.15701562
H   4.86278354 -2.50663053 -0.35492365
H   4.15231908 -1.10725547 -1.20961477
H   5.92738363 -1.29182369 -1.11680339
H   5.99073731 -2.18129301  1.75376439
H   7.05992843 -0.97265291  0.98818592

