47
Total Energy                               R     -3.384730400992475E+03
C  -1.85390857 -1.05471705  1.26386841
C  -1.95712036 -2.23771290  2.22611290
C  -1.78031600  0.24160506  2.09005337
N  -2.95998071 -1.12354205  0.26794044
O  -4.16251286 -0.55312035  0.72295887
C  -2.49278470 -0.57231060 -1.03556761
C  -3.18880065 -1.30899080 -2.17930630
C  -2.69750100  0.94001614 -1.23313452
C  -1.01941159 -0.87909387 -0.95749622
C  -0.65523790 -1.15353619  0.35408313
C   0.66586984 -1.40912863  0.69224219
C   1.61029264 -1.37626241 -0.32751845
Br   3.44508937 -1.69431947  0.10195844
C   1.26750899 -1.10497968 -1.64745061
C  -0.06579696 -0.85428535 -1.96442853
H  -2.90083016 -2.19214118  2.77797872
H  -1.14269689 -2.22411517  2.95722804
H  -1.91895836 -3.18720912  1.68559899
H  -2.64922167  0.33105801  2.74603789
H  -1.73029603  1.13524179  1.46770986
H  -0.88501430  0.22377209  2.71900507
H  -4.27006461 -1.14890019 -2.12675187
H  -2.99702927 -2.38404037 -2.12762981
H  -2.84488842 -0.94369628 -3.15195055
H  -3.76135521  1.18869162 -1.23861103
H  -2.27346343  1.24431257 -2.19468866
H  -2.21370769  1.52978638 -0.45415840
H   0.95356580 -1.61317900  1.71798794
H   2.02596492 -1.08330564 -2.42135140
H  -0.34062793 -0.63445225 -2.99143284
N   0.77741252  3.39612986  0.13422943
C  -0.41363485  3.83374890  0.91682018
C   1.98132421  4.13680302  0.60547158
C   0.98765553  1.93255328  0.32238740
C   0.55098322  3.67359579 -1.31280202
H   1.81685217  5.20276375  0.45767876
H  -0.24792271  3.59989107  1.96698717
H  -0.54149730  4.90693906  0.78507963
H  -1.28988748  3.30503692  0.54750977
H  -0.32633860  3.11746214 -1.64014084
H   0.39042054  4.74243351 -1.44405724
H   1.42898463  3.35279921 -1.87075410
H   1.12408534  1.73127513  1.38336775
H   0.11164571  1.41051391 -0.05289938
H   1.87327200  1.63594573 -0.23618068
H   2.13081070  3.92162853  1.66214411
H   2.84341962  3.80568928  0.02887816

