29
Total Energy                               R     -4.836997756417089E+02
C  -0.07637478  0.02163915  1.32042668
C   2.11256460  0.02382780  0.00000000
C   1.37548550  0.50946280 -1.23843657
N  -0.75178947  0.20925607 -0.00000000
O  -2.02618228  0.11246370 -0.00000000
C  -0.07637478  0.02163915 -1.32042668
C  -0.82506603  0.85626506 -2.35899306
C  -0.14603016 -1.45972760 -1.71564936
C  -0.14603016 -1.45972760  1.71564936
C  -0.82506603  0.85626506  2.35899306
C   1.37548550  0.50946280  1.23843657
H   1.88231620  0.18786962 -2.15277904
H   0.48479182 -2.09029460 -1.08785215
H   2.20202736 -1.06702400  0.00000000
H   1.37783664  1.60573358 -1.24267888
H   3.13206004  0.41940038  0.00000000
H   1.37783664  1.60573358  1.24267888
H  -0.90054697  1.90076931 -2.04580127
H  -0.90054697  1.90076931  2.04580127
H  -1.82922152  0.47300538 -2.54546959
H  -0.27042636  0.82322185 -3.30019735
H   0.19212505 -1.57031358 -2.74931063
H  -1.17370723 -1.82575066 -1.65299975
H  -1.17370723 -1.82575066  1.65299975
H  -1.82922152  0.47300538  2.54546959
H   0.19212505 -1.57031358  2.74931063
H  -0.27042636  0.82322185  3.30019735
H   0.48479182 -2.09029460  1.08785215
H   1.88231620  0.18786962  2.15277904

