29
Total Energy                               R     -4.838076629496888E+02
C   0.08822996  0.04064443 -1.26726499
C  -2.13154721 -0.01331237 -0.00000000
C  -1.39111167  0.46135112  1.24145349
N   0.73050982  0.48083824  0.00000000
O   2.11221294  0.13999074  0.00000000
C   0.08822996  0.04064443  1.26726499
C   0.75528084  0.80438193  2.41828779
C   0.20304574 -1.46364817  1.58780533
C   0.20304574 -1.46364817 -1.58780533
C   0.75528084  0.80438193 -2.41828779
C  -1.39111167  0.46135112 -1.24145349
H  -1.87523956  0.08814475  2.15084586
H  -0.48893698 -2.07951468  1.01292676
H  -2.22216994 -1.10473333 -0.00000000
H  -1.44110048  1.55696064  1.28518929
H  -3.15425497  0.37853908 -0.00000000
H  -1.44110048  1.55696064 -1.28518929
H   0.79339014  1.87707697  2.20517757
H   0.79339014  1.87707697 -2.20517757
H   1.77406302  0.45757928  2.60436932
H   0.18381359  0.66311882  3.34145699
H  -0.01797399 -1.63425022  2.64652111
H   1.21653303 -1.82535402  1.40014658
H   1.21653303 -1.82535402 -1.40014658
H   1.77406302  0.45757928 -2.60436932
H  -0.01797399 -1.63425022 -2.64652111
H   0.18381359  0.66311882 -3.34145699
H  -0.48893698 -2.07951468 -1.01292676
H  -1.87523956  0.08814475 -2.15084586

