29
Total Energy                               R     -4.835154435825718E+02
C   1.34197032 -0.07513443  0.01765620
C   1.62785017 -0.01219353  1.52867778
C   2.39258328 -0.93104974 -0.67206782
N  -0.00000026 -0.77578800 -0.13866435
O  -0.00000016 -1.93301812 -0.36344986
C  -1.34196997 -0.07513395  0.01765664
C  -2.39258435 -0.93104566 -0.67207107
C  -1.62785171 -0.01219800  1.52867792
C  -1.24468721  1.31641041 -0.62481081
C   0.00000205  2.09571648 -0.23290644
C   1.24468827  1.31640776 -0.62481498
H   1.02370936  0.72694722  2.04896514
H   2.15461497  1.84641858 -0.33424937
H   2.67612070  0.27485415  1.62773562
H   1.49238198 -0.98956541  1.99547427
H   2.55414037 -1.87857445 -0.15751602
H   2.13014542 -1.12453504 -1.71403986
H  -1.49239326 -0.98957374  1.99546937
H  -2.55414555 -1.87857038 -0.15752075
H  -3.32679871 -0.36744496 -0.65214073
H  -1.02370417  0.72693470  2.04897133
H  -2.67611982  0.27485873  1.62773529
H   0.00000439  2.32548844  0.83569270
H  -2.15461179  1.84642212 -0.33424044
H  -1.27390157  1.19434825 -1.71209553
H   1.27389823  1.19434269 -1.71209950
H  -2.13014406 -1.12453001 -1.71404263
H   0.00000202  3.05361624 -0.75769797
H   3.32679949 -0.36745216 -0.65213606

