53
Total Energy                               R     -1.178053245006210E+03
C  -1.57845111 -1.29747159 -0.15488755
C  -0.32066431 -0.72814114 -0.82174589
C  -1.34840166 -2.79161311  0.08570267
N  -1.94201196 -0.66501386  1.14564931
O  -0.83286669 -0.21363810  1.89428401
C  -2.96992158  0.37174598  0.90588468
C  -3.72053674  0.64833974  2.20590308
C  -2.43173215  1.70757808  0.36516476
C  -3.85197641 -0.36165068 -0.12047525
C  -4.85801772  0.49585928 -0.86787861
N  -5.74031330 -0.33529685 -1.69881942
C  -2.82543560 -1.04773890 -1.03201967
H   0.56502965 -0.90796695 -0.21028646
H  -0.39468346  0.34481565 -1.00503050
H  -0.16618908 -1.22040047 -1.78783698
H  -0.54833054 -2.94459380  0.81809865
H  -1.05831761 -3.30273425 -0.83884663
H  -2.25608207 -3.26890201  0.46799750
H  -3.06132564  1.11260904  2.94599047
H  -4.11365391 -0.27856653  2.63436459
H  -4.55992743  1.33086638  2.03903552
H  -1.64935381  2.09124061  1.02433167
H  -3.22833713  2.45678663  0.33092930
H  -2.01655375  1.62337254 -0.64106844
H  -4.41260508 -1.12924249  0.42710486
H  -4.32699200  1.24844358 -1.46576417
H  -5.48514849  1.03943734 -0.15493355
H  -5.17983158 -0.79442720 -2.41051802
H  -6.37740223  0.27134877 -2.20427450
H  -2.57267517 -0.38238904 -1.86577792
H  -3.21109417 -1.97294189 -1.46950733
N   2.45873909  2.50634467 -0.26122305
C   1.05335588  2.61088801  0.22580456
C   2.89453159  3.81957668 -0.81185403
C   3.34633190  2.12273747  0.87320959
C   2.53741400  1.46701432 -1.32683495
H   2.23385132  4.09040747 -1.63356129
H   1.00572496  3.38877823  0.98633852
H   0.41071048  2.86699614 -0.61462554
H   0.75750386  1.65292636  0.64969684
H   2.21742654  0.51664666 -0.90925154
H   1.88211903  1.75800634 -2.14621469
H   3.56695752  1.40036314 -1.67366984
H   3.27056915  2.88537020  1.64653305
H   3.02174261  1.15929142  1.26044418
H   4.37001619  2.05737867  0.50936792
H   2.83781929  4.56626698 -0.02163855
H   3.91911046  3.72710024 -1.16820136
B   3.71168999 -1.86082422 -0.00297576
F   2.79498299 -1.42562780  0.97563437
F   4.79613584 -0.96019592 -0.06591704
F   4.18682811 -3.14495455  0.33796600
F   3.07433444 -1.91567110 -1.26031748

