53
Total Energy                               R     -1.177762646326728E+03
C   0.01759558 -1.19196021  1.28130092
C   0.79036984 -0.23978536  2.19758679
C  -1.39401753 -1.42942711  1.81705909
N  -0.11428990 -0.51353671 -0.05914061
O  -0.62469144  0.53557462 -0.19670423
C   0.43527067 -1.31620660 -1.19660513
C  -0.77979711 -2.10811679 -1.72721376
C   0.97277164 -0.38801932 -2.26911689
C   1.42812750 -2.24551463 -0.47016407
C   2.84842930 -1.68577721 -0.41999296
N   3.75808699 -2.61612063  0.24912340
C   0.77846254 -2.46955428  0.91422634
H   0.25060103  0.70009203  2.32261527
H   1.79291378 -0.03500622  1.82412565
H   0.87194247 -0.73087366  3.16846072
H  -1.91061339 -0.48478424  1.99430175
H  -1.29354100 -1.95629166  2.76768157
H  -1.98039310 -2.04980665  1.13783329
H  -1.54018554 -1.42606208 -2.10886592
H  -1.22053555 -2.76133373 -0.97443176
H  -0.41006204 -2.72338976 -2.54879262
H   0.16470282  0.19456324 -2.71366757
H   1.41950485 -1.00333697 -3.05170805
H   1.72995151  0.29198946 -1.88035091
H   1.45718308 -3.19235958 -1.01213541
H   2.85106768 -0.69144942  0.04096782
H   3.20553308 -1.55582095 -1.44280708
H   3.60413231 -2.58105103  1.25131551
H   4.70771199 -2.28905079  0.10927130
H   1.51178993 -2.69786445  1.68660647
H   0.08451642 -3.30947748  0.86979571
N  -4.59283139  0.77223432 -0.06771792
C  -3.84891789 -0.15314245 -0.96856617
C  -5.70722824  1.41334558 -0.82167934
C  -5.14499328  0.00225623  1.08324031
C  -3.66625652  1.82438037  0.43907685
H  -5.28898321  1.96241694 -1.66336719
H  -4.54427193 -0.89198143 -1.36328521
H  -3.41043140  0.42481390 -1.78010714
H  -3.07345637 -0.64556734 -0.38877521
H  -2.86447041  1.34573296  0.99719101
H  -3.26060507  2.37161135 -0.40990782
H  -4.22451006  2.49664170  1.08832857
H  -5.81198426 -0.76796659  0.69968475
H  -4.31845512 -0.45268416  1.62702475
H  -5.69118126  0.68581802  1.73088674
H  -6.38120278  0.63611266 -1.17731861
H  -6.23485263  2.09233752 -0.15396482
B   3.19681211  2.22350323  0.02257923
F   3.73495987  1.53302753  1.12858234
F   1.79391203  2.07876947  0.01278104
F   3.52578933  3.59183847  0.11735883
F   3.73267170  1.69292088 -1.16945931

