53
Total Energy                               R     -1.177949599429444E+03
C  -2.45817617 -0.22927351 -1.20381247
C  -1.21988361 -0.55654059 -2.03969229
C  -3.67313070 -0.97200301 -1.75504477
N  -2.22900612 -0.62612184  0.20695429
O  -2.17830084 -1.84639988  0.55814049
C  -2.40605961  0.47007443  1.18940454
C  -3.85673224  0.44769409  1.68958171
C  -1.46046431  0.28354316  2.36855140
C  -2.14005925  1.70858328  0.30489356
C  -0.66699361  2.11224880  0.26651731
N  -0.43233075  3.24452021 -0.63309088
C  -2.70662887  1.28185483 -1.06593413
H  -1.00056549 -1.62646588 -2.00444102
H  -0.34071841 -0.00755622 -1.69690988
H  -1.40531535 -0.28414608 -3.08181501
H  -3.48166549 -2.04578624 -1.82233497
H  -3.89826089 -0.60254470 -2.75888666
H  -4.55123855 -0.81081553 -1.12467247
H  -4.08086836 -0.51431083  2.15801434
H  -4.57048756  0.61017766  0.87910395
H  -3.99917922  1.23407200  2.43496596
H  -1.71189972 -0.62664522  2.91758749
H  -1.56508280  1.12824267  3.05370637
H  -0.41594589  0.22153346  2.06150336
H  -2.71184359  2.55629450  0.69217971
H  -0.04463413  1.24628656  0.01171652
H  -0.36354672  2.42642091  1.26724805
H  -0.53867359  2.93420510 -1.59350327
H   0.54475645  3.50581463 -0.54686457
H  -2.26562750  1.82710511 -1.90157690
H  -3.78009968  1.48036059 -1.09486832
N   1.76683234 -2.77937851  0.08732484
C   0.68910170 -3.76460493 -0.21143024
C   2.82105390 -3.43297927  0.91383518
C   2.36304655 -2.29160474 -1.18890091
C   1.19458960 -1.62569648  0.83827017
H   2.37178491 -3.77462470  1.84483498
H   1.12335460 -4.60164982 -0.75548177
H   0.25964452 -4.10817800  0.72803765
H  -0.07331281 -3.27869467 -0.81614144
H   0.46216046 -1.12964755  0.20621265
H   0.71941375 -2.00171711  1.74239332
H   1.99813986 -0.93755729  1.09037183
H   2.77494764 -3.14278392 -1.72859605
H   1.58246046 -1.81309522 -1.77775393
H   3.15022089 -1.57755826 -0.95612962
H   3.22672291 -4.27788474  0.35955919
H   3.60509058 -2.70662867  1.11968501
B   3.01807615  1.85059651 -0.04025869
F   2.35376820  1.13740661 -1.05691706
F   2.60786945  1.37934135  1.22346046
F   4.41049468  1.67509588 -0.17706923
F   2.70562838  3.22538711 -0.14911052

