50
Total Energy                               R     -1.196715394244970E+03
C   1.81086124 -0.12069605 -1.25633846
C   1.24904270 -0.99962871 -2.37747332
C   1.65711417  1.33494868 -1.73105673
N   1.05226131 -0.41849020 -0.01190409
O   1.06554569 -1.81288357  0.18705401
C   1.58906302  0.23177610  1.21397261
C   1.38258593  1.75658736  1.23120365
C   0.82095500 -0.31834624  2.41935351
C   3.09915577 -0.09960300  1.39918728
C   3.88719293  0.18549711  0.15481913
O   4.89370338  0.87741049  0.14416475
C   3.31997133 -0.45868997 -1.07532648
H   0.18847973 -0.77691132 -2.53994088
H   1.34432363 -2.05496945 -2.13149007
H   1.78212401 -0.79940154 -3.31259217
H   0.62381058  1.67254625 -1.61920574
H   1.91536527  1.39569339 -2.79251481
H   2.30464448  2.04320990 -1.21611966
H   0.39750976  2.01724293  0.83803935
H   2.13269793  2.31497182  0.67280924
H   1.43521459  2.11575534  2.26333677
H  -0.24561399 -0.08538647  2.32774558
H   1.18900382  0.14519686  3.34039325
H   0.93203239 -1.39793918  2.49369747
H   3.16402232 -1.17863179  1.58188139
H   3.52471081  0.43717842  2.25113480
H   3.38209025 -1.54353261 -0.93038157
H   3.90214621 -0.17660260 -1.95651121
N  -2.17639367 -2.70103111  0.05508566
C  -3.57071050 -3.21119027  0.01275946
C  -2.16989119 -1.22040527 -0.14061262
C  -1.54874345 -3.01630954  1.37128286
C  -1.36086881 -3.33218776 -1.02324554
H  -2.61945445 -1.00146969 -1.10817576
H  -4.14449989 -2.73516779  0.80679948
H  -4.00442465 -2.97082492 -0.95710393
H  -3.55633761 -4.29042436  0.15853314
H  -1.37844848 -4.41288446 -0.88171846
H  -1.80047635 -3.07535711 -1.98685497
H  -0.34773508 -2.93033579 -0.91949071
H  -2.12218338 -2.52438428  2.15663643
H  -1.56933919 -4.09663225  1.51514619
H  -0.52285003 -2.63784460  1.32276206
H  -2.76223814 -0.76707829  0.65301520
H  -1.13593133 -0.86954449 -0.10401794
B  -2.50471023  2.75674514 -0.09910380
F  -2.29537448  1.84648722 -1.15423275
F  -2.39356183  2.08862208  1.13734920
F  -1.54411637  3.78758562 -0.16736843
F  -3.79856144  3.31394081 -0.21279988

