50
Total Energy                               R     -1.196430739652308E+03
C  -0.06478349  0.48535339 -0.88145698
C  -0.63650676 -0.88656876 -1.20463136
C  -1.14424601  1.56903181 -1.07202469
N   0.29868388  0.51132391  0.59771636
O  -0.26948343 -0.22252814  1.32195194
C   1.27462090  1.50768127  1.21079198
C   0.46568052  2.79884355  1.45285447
C   1.75611032  0.93943105  2.53677218
C   2.44612450  1.74563727  0.24867643
C   2.06819333  1.87820266 -1.20502316
O   2.51130475  2.74881391 -1.91678729
C   1.18335220  0.77486527 -1.72490336
H  -1.59055453 -1.06026733 -0.70757200
H   0.06295680 -1.68057633 -0.94281288
H  -0.80670645 -0.91527596 -2.28228034
H  -1.94960873  1.46321475 -0.34339920
H  -1.55993531  1.40799272 -2.06813275
H  -0.74261924  2.57924903 -1.03471636
H  -0.47665106  2.58966785  1.96219401
H   0.27686977  3.35910311  0.53961524
H   1.07930208  3.41964685  2.10799283
H   0.95852437  0.90530799  3.27929199
H   2.53490775  1.60929575  2.90549002
H   2.18620759 -0.05425474  2.41115713
H   3.13985163  0.90153831  0.31450480
H   2.97214609  2.63993795  0.58372630
H   1.80469232 -0.12545951 -1.76356202
H   0.85167808  1.00452147 -2.73782548
N  -4.91373576 -0.59556070  0.05091343
C  -4.65232960 -2.05830452 -0.07539044
C  -6.35646581 -0.37161488  0.35417425
C  -4.08257412 -0.03663261  1.15490485
C  -4.56418417  0.08214149 -1.23074891
H  -6.95201385 -0.78407301 -0.45848822
H  -4.91250582 -2.54234140  0.86441990
H  -5.26407183 -2.45348255 -0.88440643
H  -3.59649510 -2.20713923 -0.29513066
H  -3.51865842 -0.11580365 -1.45550906
H  -5.19863640 -0.31832367 -2.01954811
H  -4.73155150  1.15195972 -1.11821044
H  -4.35294785 -0.53727545  2.08303858
H  -3.03365561 -0.21616087  0.92783597
H  -4.27580993  1.03178234  1.23278280
H  -6.59860106 -0.87223455  1.29001511
H  -6.53216857  0.69920712  0.44285655
B   3.38407845 -1.98106762 -0.00121622
F   3.64569183 -1.53305678 -1.31124394
F   3.38425763 -3.38657259  0.03105898
F   4.36291745 -1.47947980  0.87615564
F   2.10918912 -1.50794074  0.40481338

