50
Total Energy                               R     -1.196622841002233E+03
C  -1.18954051 -1.41277635 -1.30481870
C  -0.11490403 -1.20959258 -2.37110009
C  -2.00503915 -2.67006307 -1.63526220
N  -0.51434097 -1.58258369  0.01675294
O   0.49637141 -2.35681185  0.03684995
C  -1.18951001 -1.34479315  1.32792483
C  -2.00830827 -2.58136833  1.72087712
C  -0.11439501 -1.08801289  2.38179363
C  -2.09401849 -0.10400221  1.23533988
C  -2.91772728 -0.05985391 -0.02063391
O  -4.12139620  0.09295629 -0.02412377
C  -2.09506851 -0.16911417 -1.27401056
H   0.48477471 -2.10949192 -2.51055831
H   0.54717594 -0.38047931 -2.11301090
H  -0.60346874 -0.97256803 -3.31962361
H  -1.38851176 -3.56454299 -1.51884683
H  -2.34073765 -2.61791690 -2.67428430
H  -2.89049309 -2.77182493 -1.00552612
H  -1.39764779 -3.48390557  1.64155636
H  -2.89867524 -2.70546773  1.10208198
H  -2.33714563 -2.47992202  2.75848147
H   0.48247770 -1.98090830  2.56992210
H  -0.60204635 -0.79849510  3.31609387
H   0.54978275 -0.27580828  2.07870656
H  -1.46585320  0.79304888  1.22899219
H  -2.73915928 -0.06310119  2.11438978
H  -1.46675310  0.72739954 -1.31207833
H  -2.74120396 -0.17213144 -2.15321943
N   3.55956510 -0.39862167 -0.00234193
C   3.42645367 -1.20175393  1.24730418
C   4.88127692  0.28835353 -0.01501420
C   3.45457306 -1.30377591 -1.18312755
C   2.47053209  0.61984096 -0.06024825
H   4.94378715  0.94221451  0.85334548
H   4.24677475 -1.91705149  1.28708734
H   3.47299244 -0.52813631  2.10148823
H   2.47073018 -1.72183516  1.22278707
H   1.51127085  0.10891045 -0.03922770
H   2.56503710  1.27975397  0.79959082
H   2.57531409  1.18688613 -0.98269364
H   4.26653411 -2.02814430 -1.13822853
H   2.49157931 -1.80991007 -1.14475796
H   3.53443672 -0.70537781 -2.08923106
H   5.66671215 -0.46490973  0.02347159
H   4.96370803  0.87153745 -0.93068836
B  -0.42146409  3.24506006 -0.01636832
F  -1.82797359  3.16374827 -0.07271852
F  -0.02280960  4.59652532 -0.07771781
F   0.03497917  2.67714838  1.19219529
F   0.13398299  2.54231485 -1.10631561

