28
Total Energy                               R     -6.116795945587606E+02
C   1.51411398 -0.82533578  0.09582033
C   2.31394810 -1.38979059 -1.07683173
C   2.27136879 -0.93619253  1.42413598
N   1.25951588  0.63558788 -0.15735625
O   2.11157396  1.40975265 -0.37614997
C  -0.19887488  1.01130104 -0.08376665
C  -0.34107576  1.89577473  1.16356882
C  -0.57047828  1.75497891 -1.36352695
C  -0.80727374 -0.36632352  0.04964842
C  -2.28662057 -0.54673689  0.08740031
O  -3.02041276  0.34668554  0.51722865
N  -2.75285524 -1.71814767 -0.36074383
C   0.10638465 -1.32456015  0.16400663
H   3.29575412 -0.91738017 -1.12826949
H   1.78415290 -1.24968056 -2.02018146
H   2.44478853 -2.45816663 -0.89915995
H   3.25174989 -0.46551677  1.33704656
H   2.40223971 -1.99875411  1.63418674
H   1.70949124 -0.47958956  2.24011524
H   0.27716738  2.78839170  1.05314177
H  -0.05389939  1.35427596  2.06602275
H  -1.38573553  2.19198936  1.24191090
H  -0.00044608  2.68151301 -1.44247661
H  -1.63135629  2.00105879 -1.30740166
H  -0.39578486  1.13606668 -2.24493790
H  -2.15659715 -2.41515810 -0.77707002
H  -3.74440418 -1.89955839 -0.31882554
H  -0.08198822 -2.38176958  0.30123885

