36
Total Energy                               R     -7.505059650574112E+02
C   1.24325733  1.26635418 -0.00793892
C   1.78200051  2.36996363 -0.93310119
C   1.78200008 -2.36996366 -0.93310145
N   1.78820045 -0.00000015 -0.55634997
O   3.18579255 -0.00000039 -0.45193267
C   1.24325698 -1.26635450 -0.00793896
C   1.69725002 -1.58863510  1.43444095
C   1.69725048  1.58863485  1.43444086
C  -0.27746573 -1.24292618 -0.04777102
C  -0.97717593  0.00000004 -0.05687576
C  -0.27746544  1.24292618 -0.04777107
C  -1.00334461  2.41233306 -0.01915835
C  -2.41453697  2.41293309 -0.01648838
C  -3.10490835 -1.23246785 -0.03694426
C  -2.40461579  0.00000016 -0.04929399
C  -3.10490810  1.23246842 -0.03694441
C  -2.41453742 -2.41293273 -0.01648827
C  -1.00334516 -2.41233297 -0.01915834
H   2.86923736  2.29559606 -0.95406755
H   1.50751184  3.37089479 -0.59244920
H   1.40754738  2.23546289 -1.95308208
H   2.86923695 -2.29559626 -0.95406762
H   1.40754724 -2.23546254 -1.95308241
H   1.50751124 -3.37089491 -0.59244993
H   2.75852456 -1.34421018  1.52242266
H   1.55753433 -2.65175126  1.65407532
H   1.13990367 -1.02516733  2.18458081
H   2.75852518  1.34421059  1.52242216
H   1.13990486  1.02516654  2.18458080
H   1.55753405  2.65175090  1.65407538
H  -0.49283851  3.36838587  0.00709191
H  -2.94629028  3.35943598  0.00188155
H  -4.19113742 -1.22071227 -0.03521925
H  -4.19113718  1.22071296 -0.03521946
H  -2.94629097 -3.35943549  0.00188174
H  -0.49283913 -3.36838585  0.00709181

