36
Total Energy                               R     -7.504149440914543E+02
C  -0.96263710 -0.00227179 -0.04255458
C  -2.43956035  2.38915885 -0.12702475
C  -3.07561643 -1.25979536  0.01040326
N   1.84911411  0.03885265 -0.30094570
O   3.10934066  0.05575413 -0.47316262
C  -2.39019397 -0.02237748 -0.05187429
C  -2.37490848 -2.43137097  0.09133907
C  -3.10863450  1.19807926 -0.10590370
C  -0.25771830 -1.23762573  0.00033579
C  -0.28936845  1.25379985 -0.05362905
C  -1.02967239  2.41160775 -0.09020450
C   1.58302792  1.63853259  1.55068115
C   1.82080585 -1.85092726  1.27283895
C   1.26000934 -1.30280026 -0.05057872
C   1.22274475  1.33182166  0.08527913
C   1.81928439  2.40333768 -0.83333986
C   1.70813460 -2.19463719 -1.21849421
C  -0.96645482 -2.41417539  0.08331179
H  -2.98480938  3.32672016 -0.16139904
H  -0.53760304  3.37664253 -0.07305584
H   1.23716160  2.64158609  1.81183189
H  -2.89531351 -3.38154921  0.15296019
H   1.46782575 -1.27163767  2.12813946
H   1.50488754 -2.88736098  1.40989102
H  -4.16147354 -1.25898883  0.00243186
H  -0.44163643 -3.36140920  0.13841679
H   1.35589856 -3.21689616 -1.07574507
H  -4.19402061  1.16719052 -0.12027122
H   1.55085059  2.21681910 -1.87640228
H   1.46042853  3.39329706 -0.55245864
H   1.11280428  0.92893409  2.23443544
H   2.91231896 -1.82368334  1.25262020
H   2.66664740  1.59723262  1.68675135
H   2.90476185  2.40715261 -0.74685649
H   2.79640290 -2.21511041 -1.27763783
H   1.31089210 -1.81907782 -2.16524372

