36
Total Energy                               R     -7.502269524164421E+02
C   1.26468837 -1.28249024 -0.19302549
C   2.09276132 -1.96911466  0.91402696
C   1.51246114 -1.96710727 -1.54421992
N   1.84088202  0.11209154 -0.31037791
O   2.84719304  0.24569740 -0.91020283
C  -0.22408204 -1.21464846  0.09829353
C  -2.31832228 -2.40548523  0.33863111
C  -0.90903645 -2.38862575  0.29638493
C  -0.93887089  0.00635825 -0.01154871
C  -0.27106720  1.25994337 -0.07384957
C   1.19615947  1.31683623  0.33113225
C   1.94986602  2.55339898 -0.11920254
C   1.33219759  1.12659166  1.85725517
C  -0.98178403  2.40834424 -0.31022086
C  -2.38889079  2.36761118 -0.42850752
C  -3.06365632  1.18860585 -0.27146396
C  -2.35782172 -0.02166362 -0.05143942
C  -3.02989078 -1.25421852  0.13447102
H   3.15757151 -1.90700089  0.68287697
H   2.37946725  1.00493445  2.14093024
H   3.00161607  2.48848405  0.16096599
H   2.57739106 -2.05083652 -1.75911092
H   1.87210517  2.71252251 -1.19615379
H   0.74556214  0.28921565  2.23196443
H   1.09548323 -2.97174985 -1.48704698
H   1.01205302 -1.42731728 -2.35080098
H  -2.83135443 -3.34782033  0.49620284
H   1.80918205 -3.02148771  0.92401450
H  -0.37512024 -3.32908238  0.37945423
H   1.90225850 -1.54633986  1.89856259
H   1.53200564  3.41748258  0.39591265
H  -0.48496926  3.36870167 -0.36788768
H   0.94727033  2.04100464  2.31127353
H  -2.92945294  3.29029022 -0.60876614
H  -4.14797354  1.16104784 -0.31403196
H  -4.11508239 -1.26828487  0.11560664

