33
Total Energy                               R     -7.854897695560535E+02
C  -1.94314393 -1.01310512 -0.04914064
C  -2.45946805 -2.02573980 -1.07191754
C  -1.45044987  1.94051462  1.34313053
N  -2.30599048  0.36327853 -0.48735084
O  -3.60830480  0.74495631 -0.12269680
C  -1.25250882  1.32096733 -0.05061221
C   0.50095322 -1.93700510 -0.01334836
C  -1.13897609  2.45281540 -1.07184565
C  -0.04446441  0.41756612 -0.04886319
C  -0.43995084 -0.91605595 -0.04296429
C  -2.45106077 -1.42691749  1.34311337
C   1.84957805 -1.60570704  0.00732363
C   3.70099153  0.02902646  0.01267378
O   4.57684874 -0.81582631  0.03459208
O   3.98649356  1.33673317 -0.00084963
C   2.25125442 -0.26612437 -0.00250021
C   1.29647794  0.75762466 -0.03006238
H  -3.55097283 -1.97525187 -1.12910017
H  -2.10196927 -2.43766178  1.57419636
H  -2.18738360 -3.04740571 -0.78992437
H  -2.35695094  2.54962267  1.36932051
H  -0.60161425  2.59033448  1.57670712
H  -3.54321213 -1.43407719  1.36397343
H  -2.05260173 -1.82219384 -2.06592485
H   0.19505365 -2.97832776 -0.00832737
H   2.60013828 -2.38765149  0.02807118
H  -0.91118733  2.06199719 -2.06708404
H  -0.35360880  3.16151196 -0.79152704
H  -2.08210816  3.00506036 -1.12557422
H  -2.09768245 -0.76420184  2.13413057
H  -1.51970012  1.18936433  2.13101107
H   4.94665035  1.45447835  0.01055027
H   1.60338837  1.79738894 -0.03732882

