33
Total Energy                               R     -7.853778150127080E+02
C  -2.24586799 -0.18561882 -0.00435888
C  -1.87949239 -1.53580912 -0.00301802
C  -3.66902426  0.23017910 -0.00083939
N   2.35109786  0.33948453 -0.11547680
O  -4.04433224  1.38647215 -0.00010936
C  -1.26844315  0.81176100 -0.00926619
C   2.43123342 -1.87298201 -1.20636745
C   1.30868371  2.29340044 -1.20419890
C   0.06360855  0.44041072 -0.01317475
C   0.42543141 -0.90174827 -0.01243296
C  -0.53953295 -1.89902608 -0.00700058
C   1.40218441  2.11555288  1.30890796
C   2.42354657 -1.67423910  1.30826920
O  -4.52726796 -0.79399845  0.00149701
O   3.57485521  0.66922251 -0.10464536
C   1.92095021 -1.07691228 -0.00779434
C   1.26691311  1.34740077 -0.00719737
H  -2.64204578 -2.30470731  0.00060383
H   2.05850816 -2.69906040  1.40779799
H  -0.25671210 -2.94625386 -0.00610139
H  -5.43196089 -0.45206841  0.00348866
H  -1.55583567  1.85750898 -0.00972769
H   0.56974897  2.81602533  1.40960770
H   2.06887800 -1.44723975 -2.14480740
H   2.08352242 -2.90605235 -1.13499188
H   3.52364187 -1.87995129 -1.21814006
H   1.21345771  1.74418841 -2.14367417
H   2.24709245  2.85278380 -1.21349250
H   0.48599058  3.00880923 -1.13417151
H   1.39027930  1.43474502  2.16329909
H   2.07008242 -1.09300809  2.16308587
H   3.51580546 -1.69463427  1.32074499
H   2.33467820  2.68473830  1.32170780

