37
Total Energy                               R     -1.245997825641218E+03
C   0.51492256  0.59003592 -1.29459680
C   1.39670983  0.46168090 -2.55255891
C  -0.81496391  1.23507505 -1.64252646
N   0.29109883 -0.81540131 -0.83272339
O  -0.54523346 -1.50416780 -1.27924745
C   1.24967307 -1.29899176  0.22434959
C   0.43196025 -1.92463980  1.35226079
C   2.12904293 -2.36267918 -0.44737935
C   1.94757061  0.01880861  0.66563986
C   3.46399516 -0.02373548  0.51614111
O   4.08734150  0.55648719 -0.33769039
O   4.11677387 -0.75004451  1.42553759
C   1.31176250  1.19447227 -0.11727852
C   0.44527532  2.09790892  0.74098038
O   0.42034023  3.29995156  0.60717553
O  -0.29703747  1.44352478  1.62428875
H   0.88652401 -0.13924869 -3.30615195
H   2.37383162  0.03364155 -2.33286688
H   1.53792714  1.47442759 -2.93234623
H  -1.27745010  0.71765011 -2.48275681
H  -0.61666666  2.26492146 -1.94236909
H  -1.50626504  1.23606311 -0.80000735
H  -0.12590870 -2.78829887  0.98993513
H  -0.24976366 -1.20190893  1.79713935
H   1.14353446 -2.25643535  2.11044311
H   1.49841959 -3.16045078 -0.84118398
H   2.78214730 -2.78680329  0.31557504
H   2.73834819 -1.95300705 -1.25324707
H   1.75027734  0.14763660  1.73023448
H   3.53314737 -1.16381098  2.07493316
H   2.08867242  1.83227590 -0.53257466
H  -0.86561981  2.06080972  2.10839152
B  -3.71837570 -0.31491606  0.24650103
F  -3.80337747 -0.50169893 -1.14844256
F  -2.59293982 -1.00256972  0.74478037
F  -3.59093743  1.06140359  0.53217051
F  -4.88498261 -0.81587883  0.86068150

