49
Total Energy                               R     -1.035784243884803E+03
C  -1.06307924 -1.25493769 -0.51480438
C  -0.21386325 -1.08630193 -1.77905975
C  -1.33081786 -2.73574122 -0.27494717
N  -0.35791350 -0.67564435  0.64600745
O   0.65616597 -1.24133040  1.15392862
C  -0.66477157  0.74158156  0.94560406
C  -0.90088313  0.90304507  2.44433328
C   0.51392642  1.62021453  0.51662362
C  -1.98524232  0.96326746  0.13790699
C  -1.90672256  2.14542108 -0.81031440
O  -1.76183935  2.07364869 -2.00750110
O  -2.01956807  3.35318512 -0.24402945
C  -2.32713788 -0.35646509 -0.59340228
C  -3.55153216 -1.04142350 -0.02956185
O  -4.38534545 -1.58965948 -0.71812404
O  -3.62510172 -1.01062792  1.29925847
H   0.72767606 -1.62824679 -1.67024315
H   0.00234200 -0.03781489 -1.98932109
H  -0.75363223 -1.50360226 -2.63217693
H  -0.38723164 -3.28258341 -0.24020310
H  -1.92286303 -3.13882821 -1.09912708
H  -1.86356973 -2.91338586  0.66145590
H   0.00720154  0.66206075  3.00120038
H  -1.71069178  0.25814470  2.78980563
H  -1.16735760  1.94127171  2.65698306
H   1.41260154  1.29475730  1.04257592
H   0.32872156  2.65991387  0.79239094
H   0.70283289  1.57086799 -0.55734836
H  -2.77523183  1.19948791  0.85170436
H  -2.14054821  3.30643355  0.71330814
H  -2.55464946 -0.16488323 -1.63984518
H  -4.41446993 -1.48554715  1.59663488
N   4.38871229 -0.14164413 -0.11450610
C   3.24946805 -0.63937679 -0.93647453
C   4.14753321 -0.46788736  1.32030852
C   5.65019230 -0.79441293 -0.56608242
C   4.50387036  1.33572691 -0.27584956
H   3.23276687  0.02438404  1.64357006
H   3.15780497 -1.71430754 -0.79184480
H   2.34410589 -0.13664005 -0.60945570
H   3.44848219 -0.41408689 -1.98294306
H   4.67695476  1.55921461 -1.32730903
H   3.57597275  1.79690463  0.05901789
H   5.33903287  1.68907030  0.32654442
H   5.54821541 -1.87127065 -0.44315682
H   5.81384692 -0.54895108 -1.61394816
H   6.47375492 -0.42250766  0.04117789
H   4.04889768 -1.54726098  1.42132226
H   4.99330974 -0.10956407  1.90478055

