46
Total Energy                               R     -6.979528559046471E+02
C   1.51274924  1.33280346 -0.13034903
C   1.16399081  2.29771395 -1.26370040
C   0.72107653  1.72044686  1.12579512
N   1.11381420 -0.04138161 -0.56089265
O  -0.05451294 -0.15863899 -1.05687890
C   1.75855987 -1.30444511 -0.09046870
C   1.04254235 -1.79360530  1.17531717
C   1.60127132 -2.34924193 -1.19518384
C   3.25249178 -1.07219703  0.17166147
C   3.54267826  0.20859345  0.93839149
C   3.02378121  1.38782165  0.13024826
H   0.08632758  2.36826460 -1.41779789
H   1.63033622  1.98405661 -2.20168869
H   1.53991298  3.29311172 -1.01146943
H  -0.35247505  1.65207567  0.93902325
H   0.95124566  2.75588835  1.39187553
H   0.96503847  1.09080270  1.98342893
H  -0.02395896 -1.92936674  0.98218738
H   1.15897579 -1.10400815  2.01342394
H   1.45634882 -2.76066063  1.47431771
H   0.55535831 -2.61557391 -1.35284333
H   2.14725322 -3.25290831 -0.91052216
H   2.01415270 -1.98422659 -2.13969849
H   3.77607894 -1.02940215 -0.79080276
H   3.63616798 -1.94913966  0.70130973
H   4.62083141  0.31137914  1.09204228
H   3.08595143  0.18300370  1.93324024
H   3.54699315  1.40935186 -0.83314458
H   3.23945511  2.33760842  0.62832552
N  -3.42316885 -0.04075882  0.11011131
C  -2.63244433 -0.21787492  1.36083404
C  -3.18600681 -1.20534992 -0.79189717
C  -4.87194107  0.04639499  0.44682891
C  -2.99214618  1.21244199 -0.57630708
H  -2.12188795 -1.25618684 -1.01776614
H  -2.95238946 -1.13652913  1.84975034
H  -1.57933599 -0.27848180  1.09757279
H  -2.80962843  0.63718694  2.01115897
H  -3.15734397  2.05157759  0.09768241
H  -1.93586885  1.12210121 -0.82599741
H  -3.58825699  1.33383809 -1.47956809
H  -5.17010511 -0.87156406  0.95044819
H  -5.02692867  0.90245293  1.10147571
H  -5.43805865  0.17045441 -0.47491361
H  -3.51073031 -2.11141636 -0.28278709
H  -3.76149117 -1.06060746 -1.70478416

