34
Total Energy                               R     -9.081764659095054E+02
C   1.48570817 -1.29045527 -0.07310391
C   0.90987439 -2.41252654 -0.92430155
C   3.02102594 -1.41157520 -0.02159247
N   1.18938177  0.02752393 -0.77602986
O   0.99840871  0.00526555 -1.93905488
C   1.18686740  1.38029165 -0.07408474
C   2.65572071  1.84373803 -0.02255935
C   0.37448290  2.34251089 -0.92810366
C   0.57763134  1.21586632  1.32564560
C   1.10535795  0.01828170  2.10067110
C   0.84931667 -1.26357842  1.32383338
H   1.43473891 -2.52448552 -1.87367449
H  -0.15429693 -2.26477083 -1.11157013
H   1.03447718 -3.33724456 -0.35772363
H   3.46721344 -1.23587131 -1.00263121
H   3.23489045 -2.44086556  0.27215479
H   3.47834143 -0.74870630  0.70900831
H   3.13217083  1.76856983 -1.00209244
H   3.25051312  1.30630012  0.71212735
H   2.63079955  2.89641164  0.26510347
H   0.86481149  2.56860373 -1.87576099
H   0.28449112  3.27184551 -0.36256547
H  -0.62767946  1.95763634 -1.11842404
H  -0.50663891  1.13729570  1.22146638
H   0.78351412  2.14972516  1.85442654
H   0.58498649 -0.03879681  3.05968918
H   2.16828306  0.13451987  2.32977576
H  -0.22686114 -1.41529695  1.21220427
H   1.24805856 -2.13231119  1.85337175
B  -2.81727291 -0.09258698  0.00038510
F  -1.63615963 -0.30381989 -0.74946954
F  -3.90357586 -0.68810436 -0.67010352
F  -2.67302687 -0.67317018  1.27643517
F  -3.04327139  1.29179056  0.13418354

