64
Total Energy                               R     -1.766462620899816E+03
C   1.20961057  0.95627637  0.24252683
C   1.32030490  1.74208171  1.55747135
C   2.27482068  1.44770829 -0.75094165
N   1.47841912 -0.46888171  0.57388630
O   2.58227054 -0.68935497  1.16964903
C   0.83788371 -1.64476513 -0.07692710
C   1.62221792 -1.99506799 -1.35377742
C   0.91487030 -2.80892143  0.91524432
C  -0.59929113 -1.32280265 -0.45184018
C  -1.02662101  0.02278301 -0.62614124
C  -0.18123795  1.12823931 -0.34421144
C  -0.63526089  2.40099196 -0.58601289
C  -1.93530899  2.64369767 -1.08103225
C  -2.42464502  4.02297253 -1.32666217
O  -3.52595517  4.29091046 -1.76403885
O  -1.53176607  4.96624954 -1.01752150
C  -2.78077444  1.59338521 -1.32537777
C  -2.34394538  0.27053685 -1.10877637
C  -3.21311591 -0.80908527 -1.37380912
C  -2.78796255 -2.09543848 -1.17922990
C  -3.73263008 -3.20417092 -1.46088054
O  -4.86862321 -3.04904172 -1.86298841
O  -3.21864646 -4.41453387 -1.22830301
C  -1.47173969 -2.34445776 -0.72532638
H   2.30709184  1.60150874  1.99891616
H   0.56028137  1.41539230  2.27030100
H   1.18556970  2.80789598  1.37147324
H   3.26969992  1.32668477 -0.32102070
H   2.12501373  2.50914221 -0.95677634
H   2.22525518  0.90508724 -1.69640254
H   2.67050902 -2.18312807 -1.11253637
H   1.56271589 -1.19374211 -2.09263622
H   1.20237591 -2.90028341 -1.79785769
H   1.95031451 -3.00325351  1.18989432
H   0.52399996 -3.71914417  0.46167266
H   0.34132572 -2.59433436  1.81936162
H   0.00485516  3.25053234 -0.38727803
H  -1.91225245  5.83777287 -1.19471849
H  -3.78779897  1.76392318 -1.68919785
H  -4.21621905 -0.60393542 -1.73042754
H  -3.88343330 -5.08879232 -1.42702368
H  -1.15692858 -3.37279664 -0.61560791
N   6.32162880 -0.15709899 -0.20698506
C   7.64690016 -0.83254100 -0.11376076
C   6.44696093  1.07349855 -1.03868922
C   5.33537875 -1.08076737 -0.83843575
C   5.85953766  0.21488258  1.16098308
H   7.16253251  1.74395205 -0.56580840
H   7.97449932 -1.10010980 -1.11679436
H   8.35798098 -0.14665763  0.34349837
H   7.54054152 -1.72655461  0.49819395
H   5.74051142 -0.69283356  1.74965130
H   6.60729438  0.86261023  1.61537704
H   4.90978307  0.73896617  1.08257907
H   5.70464924 -1.36272220 -1.82315749
H   5.22754316 -1.96216390 -0.20918989
H   4.38388387 -0.56313747 -0.93016542
H   6.79484489  0.79068743 -2.03076729
H   5.47018177  1.55001467 -1.10474745
B  -2.75394363  0.10703125  2.79603952
F  -2.55097853  1.38773534  2.24348607
F  -3.65959365 -0.61746878  1.99499614
F  -1.52675454 -0.58288469  2.86174470
F  -3.28391674  0.24018212  4.09887864

