64
Total Energy                               R     -1.766581314681601E+03
C  -0.87256982  1.00109502 -1.55615009
C  -0.46273548  2.14945069 -2.49385364
C  -2.38276740  1.12530529 -1.25914966
N  -0.45020672 -0.24652123 -2.23610042
O  -1.14501842 -0.38511482 -3.45673728
C  -0.51373844 -1.51432594 -1.47141380
C  -1.93051477 -2.04730916 -1.16245088
C   0.22004901 -2.55913056 -2.32983400
C   0.22606763 -1.33237404 -0.15350657
C   0.40181552 -0.03327869  0.40096568
C  -0.11944211  1.12532308 -0.24032693
C   0.03859090  2.34695993  0.36548105
C   0.74907482  2.49087735  1.58015461
C   0.93957336  3.81941667  2.21161862
O   1.56823000  4.00933751  3.23460171
O   0.34848022  4.81550845  1.54641818
C   1.28986418  1.39141751  2.19348686
C   1.11187710  0.11062328  1.62785234
C   1.63002090 -1.02853825  2.28010997
C   1.42134613 -2.27433550  1.74894680
C   1.96864237 -3.45020081  2.46859545
O   2.59124678 -3.38802480  3.51079867
O   1.71617736 -4.61255751  1.86091739
C   0.71142440 -2.41729571  0.53372955
H  -0.98376128  2.05182022 -3.44570840
H   0.61437317  2.12840165 -2.68414383
H  -0.72186308  3.12510630 -2.08009183
H  -2.96848437  0.83049026 -2.13206090
H  -2.63054758  2.16299951 -1.01846410
H  -2.68803851  0.51392463 -0.41147132
H  -2.55539102 -2.01476202 -2.05724653
H  -2.42399488 -1.48332573 -0.37188866
H  -1.86893351 -3.08786172 -0.83092347
H  -0.28588420 -2.67052565 -3.28870211
H   0.23346419 -3.54024656 -1.85263894
H   1.25292931 -2.25102362 -2.51657440
H  -0.37747159  3.23446203 -0.09081467
H   0.50832020  5.64917776  2.01033283
H   1.84327836  1.48895664  3.12077122
H   2.17943963 -0.90486925  3.20668121
H   2.09605372 -5.33423276  2.38105036
H   0.56384703 -3.41450375  0.14263601
N   3.91760995  0.40508512 -1.69054563
C   3.47767991  1.60540383 -0.92402878
C   3.03547591  0.22994428 -2.88067806
C   5.32916832  0.58756934 -2.12956192
C   3.82006509 -0.80508051 -0.82603401
H   2.00510477  0.09365635 -2.54404455
H   3.58453796  2.48253788 -1.56018440
H   2.43572399  1.47559216 -0.64566063
H   4.10016395  1.70496682 -0.03669134
H   4.43533903 -0.65603626  0.05949072
H   2.77947627 -0.94680737 -0.54849105
H   4.17304503 -1.66625067 -1.39109122
H   5.38760975  1.46996535 -2.76443419
H   5.95596772  0.71641993 -1.24870393
H   5.63954742 -0.29579420 -2.68507109
H   3.11567185  1.11842020 -3.50522600
H   3.37195905 -0.64590142 -3.43370341
B  -5.46649748 -0.22152287  0.44333344
F  -5.49440756  1.17288962  0.23329018
F  -4.40587210 -0.54601503  1.31485378
F  -6.68771042 -0.63200359  1.02138912
F  -5.28729329 -0.88146910 -0.78939768

