64
Total Energy                               R     -1.766280439856448E+03
C   1.04516524 -2.34041143 -1.13174796
C   2.54006673 -2.58338852 -1.17227163
C   0.32792968 -3.25566939 -2.14965663
N   0.52927627 -2.74449311  0.22693050
O   1.23982945 -3.31282596  0.97062765
C  -0.90492515 -2.50065062  0.65893375
C  -1.60779079 -3.86451793  0.52233006
C  -0.84646638 -2.07554313  2.13141443
C  -1.52816904 -1.39421424 -0.17453208
C  -0.73284098 -0.55784092 -0.99688617
C   0.60191731 -0.90137713 -1.33727982
C   1.39898434  0.00145749 -1.98159147
C   0.88079356  1.25787943 -2.38193761
C   1.74543794  2.26981334 -3.04067211
O   1.35147169  3.34666067 -3.43976283
O   3.01833338  1.88656746 -3.14412902
C  -0.44211627  1.55462608 -2.18492934
C  -1.28024496  0.65072137 -1.49411243
C  -2.64196893  0.93983853 -1.26930079
C  -3.42178732  0.06821879 -0.55255706
C  -4.85065392  0.41049508 -0.33473548
O  -5.38281991  1.41481563 -0.76083479
O  -5.50688952 -0.50051490  0.38531550
C  -2.85076607 -1.09092017  0.02053876
H   2.75837732 -3.63349160 -0.97796774
H   3.07626348 -1.96513225 -0.45363200
H   2.89707061 -2.35575047 -2.17611747
H   0.51075925 -4.30595200 -1.91715566
H   0.76619035 -3.02595652 -3.12189842
H  -0.74303872 -3.06837227 -2.20691726
H  -1.05533693 -4.62261009  1.07886756
H  -1.71700729 -4.17302003 -0.51568419
H  -2.59843277 -3.76962542  0.96685643
H  -0.41075499 -2.86100531  2.74808392
H  -1.86881588 -1.89996714  2.46479888
H  -0.27459769 -1.15492756  2.24616622
H   2.42435117 -0.24096027 -2.22160358
H   3.53307882  2.58558859 -3.57132568
H  -0.85433086  2.49395783 -2.53565187
H  -3.06005416  1.86044422 -1.66019633
H  -6.42796924 -0.22556843  0.49522405
H  -3.46485337 -1.71387242  0.65850294
N  -0.34421752  2.51598134  2.21648489
C   0.30007783  1.82438691  3.36845880
C   0.55198302  2.44684183  1.02622548
C  -1.63864171  1.85051105  1.89879741
C  -0.59349429  3.94155357  2.56996156
H   1.50288291  2.91205049  1.27890602
H   0.49170900  0.79028335  3.09252212
H   1.23546186  2.32975692  3.59928763
H  -0.37404068  1.87078102  4.22220249
H  -1.24777641  3.97653751  3.43962745
H   0.35897729  4.41749983  2.79695826
H  -1.06749376  4.43438275  1.72301949
H  -1.43910074  0.81665999  1.62405709
H  -2.27727651  1.88772573  2.77969685
H  -2.10862350  2.37994284  1.07302239
H   0.70041246  1.40213104  0.76214246
H   0.07835561  2.98369269  0.20681221
B   3.30108015  0.02542456  1.53446697
F   3.46633776  0.79936898  0.37049740
F   4.28292264 -0.98668350  1.57014691
F   3.42865250  0.84662597  2.67102982
F   2.01991616 -0.57500549  1.52929510

