64
Total Energy                               R     -1.766569836178515E+03
C   1.22640272  1.64797605 -1.20227808
C   2.63506729  1.76199364 -0.59694954
C   1.02607669  2.78343724 -2.23187216
N   1.15914042  0.27421814 -1.76754884
O   2.17858972  0.08432317 -2.72369303
C  -0.12813079 -0.18846284 -2.32680364
C  -0.51839667  0.39587394 -3.70409134
C   0.00867256 -1.71670175 -2.47886297
C  -1.24338305  0.10861082 -1.33768324
C  -1.05959039  1.02454156 -0.26253033
C   0.14818013  1.78299590 -0.12293875
C   0.24084287  2.64030727  0.95696027
C   1.39561188  3.53507829  1.28660678
O   2.13941027  3.35153914  2.22634456
O   1.45294538  4.62600130  0.52403438
C  -0.80096752  2.76575014  1.91406488
C  -1.96019319  2.07122513  1.77160730
C  -2.12127095  1.19581888  0.67216939
C  -3.33521861  0.49965478  0.50821066
C  -3.51130846 -0.33051133 -0.56803867
C  -4.80948825 -1.02990896 -0.72220575
O  -5.73566252 -0.94048864  0.06042068
O  -4.88188330 -1.78681471 -1.82125563
C  -2.45677938 -0.51939708 -1.48581622
H   3.36042506  1.44969981 -1.34473109
H   2.74628297  1.11736516  0.27810229
H   2.89141659  2.78385853 -0.32299214
H   1.37818860  3.73344017 -1.82640650
H  -0.02358223  2.91196144 -2.49967023
H   1.59379212  2.57066392 -3.14067477
H   0.31935376  0.32457999 -4.39968384
H  -0.83403696  1.43721821 -3.64541136
H  -1.35137860 -0.17562077 -4.12262957
H   0.81970549 -1.95004876 -3.16893613
H  -0.90039601 -2.16807918 -2.87942915
H   0.22911711 -2.18086759 -1.51427438
H   2.19209920  5.18424595  0.80829280
H  -0.66619731  3.44001765  2.75343465
H  -2.76751883  2.17880204  2.48817286
H  -4.12577727  0.63967823  1.23702319
H  -5.74863847 -2.21453646 -1.85722931
H  -2.61563388 -1.19095368 -2.31853984
N   3.55872890 -2.46989407  0.07183593
C   3.16731612 -3.21802913 -1.15596193
C   4.55719713 -1.42351342 -0.28561906
C   2.35162636 -1.82165265  0.66490583
C   4.15324799 -3.40956806  1.06178340
H   5.44055764 -1.90890245 -0.69797108
H   2.76160655 -2.51154356 -1.87731174
H   4.05078055 -3.70667918 -1.56405553
H   2.41675718 -3.96034151 -0.88943186
H   3.41313866 -4.16707998  1.31392309
H   5.03278103 -3.87678023  0.62208828
H   4.43158205 -2.84824012  1.95223563
H   1.91457746 -1.14210860 -0.07137329
H   1.64328763 -2.60260783  0.93360373
H   2.65983956 -1.27717091  1.55487670
H   4.11204985 -0.76028436 -1.02490351
H   4.81898477 -0.86788644  0.61339063
B  -0.66442295 -1.62855238  2.63662445
F   0.26432530 -0.57616177  2.52725595
F  -1.82474988 -1.16758943  3.29489020
F  -1.00814796 -2.10296498  1.35538451
F  -0.08880726 -2.68205036  3.38276168

