64
Total Energy                               R     -1.766258810559641E+03
C  -1.01899951  0.09756499  0.92396832
C  -2.10306786  1.14992128  1.05450917
C  -1.37234873 -1.13727957  1.77637458
N  -1.02266242 -0.34419405 -0.52837312
O  -1.83381206  0.09376152 -1.25705216
C  -0.03982111 -1.34480964 -1.07932271
C  -0.79400244 -2.68985641 -1.10838806
C   0.29482846 -0.88718895 -2.50505178
C   1.21446868 -1.34826023 -0.22707500
C   1.46059506 -0.33794994  0.74270459
C   0.42294898  0.51755616  1.22140568
C   0.76071670  1.56788756  2.04507861
C  -0.16980653  2.62171025  2.56889088
O  -0.36590691  3.67126355  2.00260178
O  -0.66547969  2.31661078  3.76308600
C   2.09865752  1.75915397  2.47273397
C   3.07672623  0.88297188  2.11272746
C   2.77920530 -0.19228224  1.24402810
C   3.77690752 -1.12094378  0.87959642
C   3.48262657 -2.15503607  0.03041583
C   4.55153714 -3.13284479 -0.30060068
O   5.68285476 -3.07713365  0.13536794
O   4.14779230 -4.09496857 -1.13067268
C   2.19699483 -2.24761430 -0.54630097
H  -3.05651472  0.73499208  0.72889689
H  -1.88617998  2.04419887  0.46982821
H  -2.22385861  1.40955416  2.10344954
H  -2.32627114 -1.56099999  1.46265515
H  -1.46396732 -0.77790846  2.80246014
H  -0.59902395 -1.90335259  1.75286282
H  -1.72846380 -2.57630179 -1.65802566
H  -0.99477953 -3.07468903 -0.11080105
H  -0.16757951 -3.40454175 -1.64201224
H  -0.59723668 -0.86225760 -3.12958201
H   0.99241287 -1.60754906 -2.93068210
H   0.76758680  0.09596993 -2.49429414
H  -1.22167882  3.04126818  4.08767605
H   2.32615593  2.59653202  3.12295011
H   4.08934218  1.00086413  2.48211281
H   4.77500811 -1.00829986  1.28745523
H   4.88034896 -4.70342267 -1.30189951
H   2.01209571 -3.01680614 -1.28479310
N   0.45087050  3.65784569 -2.24814518
C  -0.53112650  4.50654880 -1.51355455
C   1.17516211  2.79405626 -1.27446010
C  -0.27395622  2.79915911 -3.22811738
C   1.42531713  4.52461125 -2.96906533
H   1.70010599  3.42865315 -0.56234711
H  -1.23734542  3.85552905 -1.00037218
H   0.00619526  5.12233732 -0.79486089
H  -1.05351772  5.13563363 -2.23238988
H   0.88327644  5.14752916 -3.67839451
H   1.94351482  5.14665294 -2.24130941
H   2.13600064  3.88775704 -3.49316214
H  -0.98187724  2.17287915 -2.68811180
H  -0.80145270  3.44259687 -3.93040630
H   0.45086659  2.18144223 -3.75508248
H   0.43905234  2.18656777 -0.75869188
H   1.88001227  2.16352201 -1.81330181
B  -4.75998873 -2.06201364 -0.03410054
F  -6.02319572 -2.54857704 -0.42810513
F  -4.91897939 -1.13098117  1.01363592
F  -3.95959637 -3.13482416  0.40997334
F  -4.13652939 -1.43256949 -1.13142918

