64
Total Energy                               R     -1.766449864577304E+03
C   0.34554384 -1.07645819  0.82081869
C   0.14812735 -2.58193186  0.95354940
C   1.54301958 -0.65634496  1.69475844
N   0.64392644 -0.79249668 -0.61559234
O   1.09555264 -1.73152204 -1.34489289
C   0.80841114  0.58222094 -1.14500494
C   2.30505351  0.92475300 -1.18556840
C   0.23808824  0.59538331 -2.57339438
C  -0.00314533  1.55830007 -0.30944355
C  -0.90054573  1.11567644  0.70415005
C  -0.85844476 -0.22092988  1.21717792
C  -1.81895979 -0.59428787  2.13011592
C  -1.95890945 -1.94177358  2.77128996
O  -2.72305374 -2.79626539  2.38349725
O  -1.23929456 -2.05348572  3.88611940
C  -2.81382076  0.31420973  2.57956052
C  -2.80710436  1.60923678  2.16529197
C  -1.83733261  2.04578803  1.23080424
C  -1.79027986  3.39846513  0.83600461
C  -0.84370047  3.82263293 -0.06037350
C  -0.79730337  5.26271270 -0.41698621
O  -1.56370961  6.09901760  0.01799387
O   0.18232812  5.56836690 -1.27027259
C   0.03516150  2.88789972 -0.64786402
H   1.01902665 -3.09616086  0.55211492
H  -0.73724716 -2.93411945  0.42460052
H   0.08353441 -2.86140519  2.00270345
H   2.44764217 -1.16248887  1.35387605
H   1.34276925 -0.94767663  2.72820715
H   1.71129567  0.42119656  1.67658714
H   2.83549878  0.16054321 -1.75523592
H   2.73806505  0.98566692 -0.18785448
H   2.45733971  1.88173148 -1.68730266
H   0.74810956 -0.13873286 -3.19749113
H   0.38814929  1.58145836 -3.01499486
H  -0.83232563  0.37954577 -2.56943560
H  -1.40258256 -2.91461587  4.29991290
H  -3.55855178 -0.03036959  3.28900367
H  -3.53425986  2.31824595  2.54592146
H  -2.50190797  4.09735805  1.26121701
H   0.16183704  6.51819141 -1.45258668
H   0.72266952  3.23073247 -1.41039518
N  -2.98746048 -2.49385666 -2.28389985
C  -2.22235302 -3.72957739 -1.95301437
C  -2.78517980 -1.48635097 -1.20470929
C  -2.49472700 -1.94191659 -3.57752877
C  -4.43678098 -2.81833043 -2.39691106
H  -3.13563980 -1.90622525 -0.26398579
H  -1.16643803 -3.47489440 -1.87773514
H  -2.58490968 -4.12366779 -1.00546648
H  -2.37694464 -4.45782326 -2.74737226
H  -4.57034658 -3.56047986 -3.18230257
H  -4.78123103 -3.21362191 -1.44281400
H  -4.97973724 -1.90770202 -2.64434775
H  -1.42936315 -1.73835941 -3.48644875
H  -2.67005389 -2.67829251 -4.35999996
H  -3.03745314 -1.02380499 -3.79578372
H  -1.72424759 -1.26218637 -1.14718693
H  -3.34648135 -0.58655141 -1.45138557
B   5.35839854 -0.91770578  0.08923010
F   6.53007181 -1.59395719  0.49328214
F   4.95838241 -0.02727918  1.10686132
F   5.61909901 -0.19444490 -1.09319489
F   4.33500673 -1.85850127 -0.14912899

