45
Total Energy                               R     -9.426183701121315E+02
C   2.66355520  0.46574757 -0.07746010
C   1.84401302 -0.65843832  0.03079713
C   4.13204739  0.26437026 -0.10073250
C   0.71918183  1.90187165 -0.15597465
C   2.09800192  1.74055734 -0.17570124
N  -1.80001940 -0.75043596  0.08381449
O   4.82549135  1.39554742 -0.26021460
C  -0.09273701  0.78094065 -0.02647415
C  -0.49223426 -2.38210884  1.43573798
C  -0.60382502 -1.57355865  2.72002822
C  -2.24208614  1.36961824  1.23580742
C  -2.26763176  2.89272362  1.26367898
C  -1.60275547  0.72456811 -0.01182329
C   0.47239634 -0.48779295  0.05114861
C  -0.56779499 -1.57152647  0.12918339
C  -0.51864838 -2.53885996 -1.06833427
C  -0.68251853 -1.89302410 -2.43646267
O   4.67708586 -0.81673943  0.00955475
O  -2.94243323 -1.27992156  0.23657545
C  -3.66252964  1.19213961 -1.53698950
C  -2.15509153  1.28388758 -1.33948814
H   5.77128397  1.19349671 -0.27016599
H   0.44011601 -3.06406027 -1.01138652
H   0.46131793 -2.91921653  1.41223740
H   2.28039431 -1.64956208  0.09044451
H  -1.29690849 -3.29392984 -0.91979137
H   2.73506997  2.61081407 -0.27290573
H   0.29535072  2.89384732 -0.25571712
H   0.05537406 -1.10362012 -2.60654208
H  -3.93838203  1.68129384 -2.47530549
H  -1.64166540  0.77679920 -2.16036621
H  -1.27801266 -3.14285122  1.40634545
H  -1.59498872 -1.12663858  2.82777735
H   0.13763978 -0.77053809  2.76354313
H  -0.44083799 -2.22182723  3.58491808
H  -1.71011867  0.99863946  2.11543499
H  -2.75678674  3.22815158  2.18210045
H  -3.26520083  0.99072023  1.30833136
H  -1.26483565  3.32552303  1.25602681
H  -2.82584807  3.31366419  0.42403714
H  -1.84241823  2.33115859 -1.39173428
H  -0.55410410 -2.64181596 -3.22233981
H  -1.67820765 -1.45810957 -2.55663849
H  -4.00290935  0.15636003 -1.59050117
H  -4.21439577  1.68696951 -0.73347587

