45
Total Energy                               R     -9.427196562831091E+02
C  -2.65708210 -0.46626698 -0.04358865
C  -1.73902087  0.58325259  0.06081848
C  -4.09834361 -0.13663120 -0.01108914
C  -0.84813129 -2.05943483 -0.18433716
C  -2.20861827 -1.78572055 -0.17158441
N   1.89909607  0.29522946  0.41538991
O  -4.90245536 -1.20294324 -0.10348538
C   0.05698329 -1.01033304 -0.07717564
C   1.70961149  3.27068834  1.45564493
C   0.59437656  2.25409248  1.24003908
C   1.46757945 -2.03633667  2.35041861
C   2.07389587 -2.11904701  0.95476312
C   1.56255269 -1.07447605 -0.05874510
C  -0.38249901  0.30294716  0.02819921
C   0.79297873  1.24962648  0.08736500
C   0.97288840  1.96465645 -1.27471948
C  -0.07278824  3.01979752 -1.62379753
O  -4.54496239  0.99132005  0.08962719
O   3.18454331  0.72001265  0.02331898
C   3.45378653 -2.04346425 -1.64225970
C   2.05348407 -1.44935688 -1.49159917
H  -2.10205064  1.59853198  0.17034330
H  -1.08576684  2.60851974 -1.65246729
H  -0.34428170  2.79443473  1.07489993
H  -0.07123798  3.85428891 -0.91747589
H   1.89094060  3.87603533  0.56254779
H  -2.92108479 -2.59764426 -0.25220583
H   1.34246848 -2.18067523 -1.89323540
H   0.13449517  3.43456043 -2.61505545
H  -5.82237662 -0.90600833 -0.07619067
H   1.96692775 -0.56640388 -2.12853509
H   0.45081630  1.67238190  2.15703968
H   2.65095869  2.78784012  1.72645065
H   1.60475234 -1.04504633  2.78850290
H   1.44312027  3.95626543  2.26616518
H   1.94179677 -2.76395321  3.01601796
H   0.39465526 -2.25065683  2.34347154
H   3.16104313 -2.00992286  1.02416269
H  -0.50078566 -3.08462506 -0.26708303
H   1.89534725 -3.11958780  0.54267183
H   3.54444674 -3.01155916 -1.14279147
H   0.98260461  1.20754185 -2.06374357
H   3.66778419 -2.20864170 -2.70322345
H   1.96297157  2.42538043 -1.28750173
H   4.23185598 -1.38873945 -1.24629503

