45
Total Energy                               R     -9.424279338606450E+02
C   2.75566239 -0.27540525 -0.03014547
C   1.78510167  0.72289229  0.05434990
C  -0.79775672  2.05120647 -1.32444592
C   2.38573256 -1.61732813 -0.16311174
C   4.18228411  0.13454255  0.02651814
N  -1.84733883  0.26326016  0.02025844
O   5.03436107 -0.89033036 -0.03369885
C   0.08924652 -0.98054361 -0.10274957
C  -2.03636948  2.88636155 -1.59587955
C  -1.76399954 -1.26507244 -2.58660809
C  -2.05788178 -1.87654815 -1.22416924
C   1.04592455 -1.97833012 -0.19845314
C  -1.39988904 -1.16726862 -0.03060435
C   0.45456981  0.35292996  0.01516016
C  -0.73541306  1.27109854  0.02388259
C  -0.88066905  2.19166393  1.24386672
C  -0.80735456  1.49066373  2.59253871
O   4.55525001  1.28638623  0.12153779
O  -2.98357013  0.57069548  0.04994733
C  -3.23243086 -1.84105352  1.73639862
C  -1.76882646 -1.83380868  1.33213284
H   5.94125638 -0.55659198  0.00993490
H   2.07246444  1.76377025  0.14957275
H   0.08948741  2.68931891 -1.28234845
H  -0.07216235  2.92088967  1.14382447
H  -2.20680698  3.64472466 -0.82991491
H   3.14594944 -2.38473361 -0.23482780
H  -1.39898971 -2.85632114  1.21406987
H   0.10840399  0.90386208  2.69833945
H  -3.32796283 -2.41573939  2.66106608
H  -1.16304846 -1.36925576  2.11239043
H  -0.63123546  1.33995910 -2.13612666
H  -2.93944961  2.27833497 -1.69030119
H  -0.69025865 -1.17931025 -2.77197330
H  -1.89822152  3.40298961 -2.54903028
H  -2.21306321 -0.27367929 -2.69461407
H  -2.18854157 -1.90083276 -3.36634935
H  -3.13474926 -1.91871597 -1.05149073
H   0.75716610 -3.01901601 -0.29234470
H  -1.68590319 -2.90345512 -1.17567149
H  -3.87529247 -2.30805552  0.98828477
H  -0.82090208  2.23726227  3.38937354
H  -1.66176758  0.82729183  2.75388281
H  -1.81886176  2.74211279  1.15308105
H  -3.61205329 -0.83764417  1.94498992

