36
Total Energy                               R     -9.740629098627644E+02
C   0.46095718 -1.39621939 -0.05551353
C  -2.53112568  1.73410680  1.34770729
C   2.91639657 -1.48826408 -0.00122242
N  -2.90203272 -0.03510816 -0.47493437
O   3.51792734 -1.44959586  1.18733455
C   1.64469065  0.72001611 -0.03977604
C   0.42693338  1.40594903 -0.04854872
C   2.92566813  1.46166676 -0.11045119
C   1.65558176 -0.68276455 -0.03848142
C  -0.73828429 -0.70082898 -0.06181495
C  -2.47494289 -1.77983892  1.35920069
C  -2.14321402 -1.24165979 -0.04397538
C  -2.35155158 -2.36580805 -1.05855619
O  -4.25779190 -0.05453407 -0.10123415
O   3.30405984 -2.17573513 -0.92016756
C  -2.17516512  1.19348662 -0.04806664
C  -2.40813197  2.30368850 -1.07270531
O   2.81182926  2.75512024  0.19538553
O   3.98536484  0.95873447 -0.42810347
C  -0.75520572  0.68753305 -0.05812622
H  -1.83660450 -2.64008954  1.58097555
H  -2.31697430 -1.03771074  2.14272152
H  -2.37063948  0.99915708  2.13747378
H   4.31845260 -1.99459192  1.16654802
H   0.47726215 -2.48148545 -0.05132128
H  -1.78240608 -3.25875103 -0.78290015
H  -1.90830004  2.60534316  1.57115580
H  -3.57618435  2.05034983  1.38101223
H   0.41640711  2.48958473 -0.06573254
H  -1.86515410  3.21396057 -0.80066625
H  -2.04146504 -2.05339858 -2.05911278
H   3.67301279  3.18555440  0.09925854
H  -3.51477194 -2.11157556  1.40481590
H  -3.40924356 -2.64281600 -1.09576666
H  -3.47272440  2.55166762 -1.11877780
H  -2.08319133  1.99226256 -2.06888224

