36
Total Energy                               R     -9.739497419054360E+02
C   0.42600135  1.40578453 -0.01268618
C  -2.45042686 -2.02457029 -1.28384494
C   2.92224872  1.46287265 -0.11670546
N  -2.92832925 -0.03331058  0.09433770
O   3.97351569  0.95660080 -0.45197030
C   1.65156018 -0.68321621 -0.02253411
C   0.45917947 -1.39685361 -0.01422762
C   2.91504164 -1.48831388 -0.00899284
C   1.64028295  0.71972811 -0.02671697
C  -0.75554338  0.68622343  0.00300874
C  -2.49733710  1.95578198 -1.29962165
C  -2.15905614  1.23272238  0.00480900
C  -2.45237587  2.11174322  1.21805037
O  -4.19504601 -0.04941636  0.09148474
O   2.81096967  2.75369128  0.19317644
C  -2.12823824 -1.28036991  0.01286036
C  -2.39414885 -2.15547139  1.23574740
O   3.28871676 -2.16577229 -0.93995281
O   3.52943138 -1.45570798  1.17158638
C  -0.73926888 -0.70080600  0.00205297
H  -1.88952135  2.85959112 -1.38471469
H  -2.29838476  1.31820680 -2.16413272
H  -2.27033242 -1.39059540 -2.15503636
H   3.66981079  3.18712703  0.08807112
H   0.41124470  2.48895822 -0.03063554
H  -1.85336497  3.02364701  1.16317286
H  -1.81974920 -2.91318503 -1.36158041
H  -3.49547628 -2.34245092 -1.28545115
H   0.47191896 -2.48171120 -0.00845801
H  -1.77481528 -3.05390523  1.18574328
H  -2.21169508  1.59171116  2.14803684
H   4.33097646 -1.99891276  1.14046216
H  -3.55023075  2.24682298 -1.30767861
H  -3.50713238  2.39566471  1.23258134
H  -3.44211362 -2.46290189  1.25768818
H  -2.16104389 -1.62158640  2.15977777

