33
Total Energy                               R     -7.851786009199984E+02
C  -0.26600681 -1.26686864 -0.00339250
C  -2.07625574  0.50486625 -0.01384387
C  -0.20500890 -2.03212021  1.33005259
N  -1.73360539 -0.94371713 -0.18637626
O   2.78628555 -1.49971519  0.56716927
C   0.16151858 -2.12210433 -1.19325221
C  -2.90690197  0.95411575 -1.21287156
C   2.79402924 -0.40174636  0.05452134
C   0.30952808  0.13378068  0.04965820
C  -0.69647340  1.09347104  0.05032324
C  -0.42006201  2.45147043  0.08357025
C  -2.85704459  0.62250178  1.30251573
O  -2.53700299 -1.76507387 -0.41688872
O   3.87124823  0.09309699 -0.55756207
C   0.90456956  2.86080518  0.09658947
C   1.92371417  1.91800577  0.06269081
C   1.64725416  0.54872114  0.04624845
H  -3.80235818  0.08287127  1.22847458
H  -3.85037403  0.40828974 -1.24937892
H  -2.27634058  0.24371570  2.14441919
H  -0.79945858 -2.94428668  1.25680006
H  -0.57064836 -1.41793931  2.15428918
H   0.83534274 -2.29045399  1.51150335
H  -0.43296330 -3.03582166 -1.22909685
H  -3.12202764  2.01590274 -1.08473146
H  -2.35943806  0.81382569 -2.14598268
H   1.20606852 -2.39850623 -1.06361015
H   4.60053969 -0.53915377 -0.48402239
H   0.05021306 -1.57234400 -2.12898089
H  -3.06038400  1.68283229  1.46005696
H  -1.22739613  3.17564055  0.09063147
H   1.14881535  3.91617322  0.12208391
H   2.95423878  2.24941995  0.06357099

