33
Total Energy                               R     -7.854827084545018E+02
C  -0.30304396 -1.25009556 -0.06421213
C  -0.27676154 -1.95919443  1.30119872
C   2.79101329 -0.36165215  0.08956357
N  -1.66524744 -0.90791616 -0.57169646
O   2.92314764 -1.29806985  0.84853371
C   1.63091101  0.57090194  0.06261879
C   0.37326597 -2.14799798 -1.10258898
C   1.90779395  1.94303220  0.10387545
C   0.30197719  0.14023342  0.02952892
C  -0.71756231  1.09116576  0.02976769
C  -2.06674582  0.42614261 -0.06339732
C  -2.77382158  0.44808635  1.30370341
O  -2.62526646 -1.91046436 -0.35299224
O   3.72785400 -0.03671116 -0.80900974
C  -2.98166774  1.10282197 -1.08557156
C  -0.44586564  2.44861415  0.09928659
C   0.87899970  2.87389950  0.14138133
H  -0.85469674 -2.88466035  1.25346836
H  -3.89489617  0.51476160 -1.21718785
H  -3.72304063 -0.09089447  1.25499820
H   0.74928933 -2.21388572  1.56913441
H  -0.68609010 -1.34249012  2.10217059
H   4.48164550 -0.63762350 -0.71883675
H   0.49792847 -1.62313314 -2.05356246
H  -2.48688007  1.19254096 -2.05632511
H  -0.25280398 -3.02767343 -1.27813230
H   1.35035802 -2.50415745 -0.76993330
H   2.93826659  2.27965982  0.12480839
H   1.11273318  3.93185936  0.19096129
H  -2.17141006  0.00786544  2.09879855
H  -2.98993411  1.48310112  1.58496050
H  -1.25449328  3.17315472  0.10775671
H  -3.27608050  2.10320445 -0.75438472

