53
Total Energy                               R     -9.647656150557177E+02
C   0.30949705  1.29887912  0.76560767
C  -0.56463796  2.37990966  0.10675616
C   0.51705175  1.69192098  2.24549072
N  -0.42387060  0.02639978  0.56518875
O  -1.63246256  0.06065287  1.26853664
C   0.29718935 -1.23636563  0.85193191
C   0.57632381 -1.49238480  2.35033115
C  -0.62008952 -2.36034108  0.34552864
C   1.62097275 -1.24966383  0.10041100
C   2.26177619 -0.01970765 -0.23639790
C   1.66426850  1.23699399  0.07462696
C   2.35512225  2.39124164 -0.21991344
C   3.61981375  2.36386023 -0.84374682
C   4.19946878  1.16974685 -1.17383597
C   3.53964028 -0.04743324 -0.87187326
C   4.14377188 -1.29338870 -1.17664414
C   3.51279840 -2.45992931 -0.84529461
C   2.25658943 -2.43223311 -0.20197447
H  -1.54154638  2.38589239  0.58859789
H  -0.70545338  2.16726979 -0.95744514
H  -0.13204279  3.37757907  0.20589893
H  -0.40604710  1.48298165  2.79065597
H   0.74477677  2.75899570  2.32990095
H   1.33688214  1.14540037  2.71401723
H  -0.31688947 -1.23001348  2.92229630
H   1.42046894 -0.91015380  2.72348440
H   0.80678131 -2.54851833  2.52174411
H  -1.56965374 -2.30367904  0.87542020
H  -0.19417436 -3.35024035  0.52081657
H  -0.81534477 -2.25098201 -0.72577719
H   1.93060296  3.35701886  0.03011272
H   4.12648246  3.29911564 -1.06152652
H   5.17059498  1.13566607 -1.65923023
H   5.11348464 -1.30212544 -1.66601360
H   3.97464837 -3.41669548 -1.06920841
H   1.80020593 -3.37937741  0.06103332
N  -4.26354421 -0.01744138 -0.77221024
C  -3.01627210 -0.06254898 -1.59198707
C  -5.45820760 -0.05411367 -1.65444731
C  -4.27016704 -1.18535436  0.15621728
C  -4.25834239  1.23404136  0.03991994
H  -5.43178002  0.80824770 -2.31931199
H  -3.02184434 -0.98204185 -2.17693463
H  -3.01193875  0.79964730 -2.25858894
H  -2.16655893 -0.03591457 -0.90737532
H  -3.36391091  1.19342981  0.66715521
H  -4.23025163  2.08773221 -0.63680371
H  -5.16767982  1.26227012  0.63973458
H  -4.25113020 -2.10031400 -0.43520769
H  -3.37441267 -1.09375479  0.77605225
H  -5.17932584 -1.14727223  0.75578513
H  -5.43828308 -0.97472633 -2.23621898
H  -6.35446171 -0.02214611 -1.03644479

