53
Total Energy                               R     -9.646653997602675E+02
C   0.75359882  1.83077883 -0.49399674
C  -0.18986538  2.03907090 -1.68893330
C   1.51626352  3.13679740 -0.21661903
N  -0.10156947  1.50755442  0.68103847
O  -1.03470902  2.33345636  0.93263753
C   0.34628634  0.60752829  1.78182784
C   1.43014669  1.31715558  2.61753931
C  -0.85652594  0.31245103  2.67416138
C   0.94197167 -0.64677460  1.16346281
C   1.67148451 -0.53392666 -0.05696174
C   1.69193143  0.67402995 -0.80899114
C   2.50884461  0.76307782 -1.91288019
C   3.28619368 -0.32978741 -2.34472378
C   3.22021039 -1.52580633 -1.68282647
C   2.41357518 -1.65584716 -0.52674394
C   2.34166334 -2.88432974  0.17960375
C   1.58569545 -2.98370708  1.31308915
C   0.89954603 -1.85445568  1.81377590
H  -0.94157185  2.79178302 -1.45003513
H  -0.69012541  1.10703012 -1.95862889
H   0.37715076  2.38277960 -2.55531846
H   0.80879599  3.92358190  0.05403358
H   2.05007821  3.45420123 -1.11458195
H   2.24287775  3.02432895  0.58843236
H   1.06753295  2.29082098  2.95810608
H   2.35253538  1.46098181  2.05247609
H   1.66566189  0.70736913  3.49306205
H  -1.29555136  1.24154492  3.03353767
H  -0.54002247 -0.26270652  3.54452801
H  -1.62276737 -0.25402219  2.14397373
H   2.54330022  1.68001512 -2.49131407
H   3.91563888 -0.22098446 -3.22189258
H   3.78763550 -2.38522857 -2.02714098
H   2.90094225 -3.73698606 -0.19369830
H   1.52579376 -3.92286659  1.85338858
H   0.35495202 -1.95912559  2.74422207
N  -3.55477030 -0.70130582 -0.71013286
C  -3.88312649  0.19672999  0.43455514
C  -2.18117631 -1.25434771 -0.53030025
C  -4.53581290 -1.82232797 -0.76647212
C  -3.62095609  0.07685207 -1.97973669
H  -1.47722711 -0.42784606 -0.46929586
H  -3.87246921 -0.39017141  1.35114998
H  -3.13508247  0.98766419  0.48481159
H  -4.87382324  0.61794621  0.27094996
H  -4.64029487  0.43469421 -2.11498435
H  -2.93554223  0.91852906 -1.90975098
H  -3.33735963 -0.57445444 -2.80483082
H  -4.47420961 -2.38726085  0.16208056
H  -5.53479092 -1.40694532 -0.88826738
H  -4.28760462 -2.46098635 -1.61268833
H  -2.15706537 -1.83498205  0.38995512
H  -1.94502854 -1.88906417 -1.38269830

