41
Total Energy                               R     -1.174881187109757E+03
C  -1.57787329 -1.04275060 -0.92626890
C  -0.87107387 -1.41180803 -2.23733477
C  -3.00473815 -1.63374198 -0.91877442
N  -0.84172737 -1.76727955  0.18239339
O  -0.47067408 -2.86421861 -0.02851495
C  -0.63431166 -1.17202770  1.55533861
C  -2.02929115 -1.14868409  2.22163805
C   0.29922359 -2.08428885  2.32915466
C  -0.13957917  0.25067992  1.34792688
C  -0.72832554  1.03479649  0.31888171
C  -1.53546713  0.45811978 -0.69658299
C  -2.17666048  1.27115595 -1.59965364
C  -2.00695795  2.66976844 -1.56590034
C  -1.16158486  3.23962397 -0.65306430
C  -0.49831053  2.43655325  0.30558184
C   0.39300714  2.99938394  1.25398653
C   1.01376683  2.20599356  2.17735408
C   0.73207103  0.82321700  2.23614247
H  -0.90177691 -2.48658870 -2.41491215
H   0.16192941 -1.06605357 -2.23201214
H  -1.40281017 -0.91829123 -3.04996644
H  -2.96381522 -2.72047039 -1.01182406
H  -3.52111955 -1.23850069 -1.79372509
H  -3.56958492 -1.36044674 -0.02998827
H  -2.48158060 -2.14248109  2.21692440
H  -2.70350887 -0.42929666  1.75968383
H  -1.86365542 -0.84224504  3.25567395
H  -0.11733141 -3.08881335  2.40712727
H   0.39619728 -1.69666009  3.34228688
H   1.28732217 -2.13510882  1.87158724
H  -2.79454028  0.84283757 -2.38128258
H  -2.52549738  3.28361721 -2.29430222
H  -0.98782076  4.31108139 -0.64993881
H   0.57477012  4.06930129  1.22963339
H   1.70654385  2.63393726  2.89366546
H   1.19734247  0.23452837  3.01659593
B   2.77373687 -0.32056404 -0.92782343
F   2.04342580  0.72835486 -1.51743295
F   3.64636661 -0.88105762 -1.88481461
F   3.52054836  0.17081022  0.16097461
F   1.88458893 -1.32241493 -0.47375999

