50
Total Energy                               R     -1.250766159484831E+03
C   0.04648916 -0.86432742  0.44890828
C  -0.57874209 -2.15566050 -0.07606451
C   1.16321977 -1.16055066  1.45198980
N   0.55599554 -0.04797150 -0.67360099
O   1.44232573 -0.46820404 -1.47613589
C   0.03101276  1.33900521 -0.72388437
C   1.17271764  2.31782748 -0.43802031
C  -0.59616004  1.60830180 -2.09045347
C  -0.99979979  1.25394679  0.38505271
C  -1.90596569  2.38460470  0.71927810
O  -1.54220748  3.56216322  0.60226551
N  -3.12545277  2.05033851  1.16077022
C  -0.97596069  0.07850376  1.00834880
H   0.18791607 -2.78675537 -0.53218780
H  -1.35153552 -1.94479858 -0.81728977
H  -1.03026797 -2.70779407  0.75114326
H   1.93950655 -1.77062627  0.98453863
H   0.75576645 -1.71692319  2.29949120
H   1.61244168 -0.23783556  1.82624836
H   1.96539842  2.17981928 -1.17755012
H   1.58878216  2.15684332  0.55920346
H   0.81609081  3.34541211 -0.50704225
H   0.16225060  1.54139207 -2.87397682
H  -1.01856886  2.61532171 -2.11142915
H  -1.39176376  0.89142581 -2.30548907
H  -3.45900337  1.09488542  1.15104102
H  -3.76676253  2.78323308  1.42391609
H  -1.59965851 -0.21416987  1.84426033
N   5.17490964 -0.47821485  0.12513710
C   4.71475128 -1.56126076 -0.79045025
C   6.55369788 -0.05973916 -0.25462374
C   4.25316692  0.68849218  0.01775376
C   5.17300857 -0.98065115  1.52837377
H   7.21648705 -0.91917633 -0.17124426
H   4.70516805 -1.17712019 -1.80878265
H   5.40396646 -2.40038147 -0.71066979
H   3.71345380 -1.86811132 -0.49605919
H   4.15913045 -1.27796709  1.79142526
H   5.84466059 -1.83483408  1.59564877
H   5.51293003 -0.18200878  2.18546304
H   4.24885627  1.03632480 -1.01330761
H   3.25754332  0.36859379  0.31101023
H   4.60767688  1.47598550  0.68071021
H   6.53801445  0.30428357 -1.28046028
H   6.87678481  0.73140080  0.41963448
B  -4.46950427 -1.27839764 -0.16541924
F  -4.09383443 -2.63302170 -0.14592935
F  -3.74315289 -0.59083575 -1.15420659
F  -5.84840753 -1.16870463 -0.42618735
F  -4.19187959 -0.70145159  1.10370304

