38
Total Energy                               R     -8.057665045101942E+02
C   1.72416109  1.09883888 -0.15282154
C   2.51363136  1.64052478  1.05038842
C   2.14985697  1.84260902 -1.42845376
N   2.08123291 -0.33066749 -0.35401016
O   3.30678703 -0.55755014 -0.62153957
C   1.27911653 -1.46220709  0.18630403
C   1.74689897 -2.73918558 -0.50965729
C   1.54230717 -1.58122819  1.69979965
C  -0.19417058 -1.17660100 -0.04828790
C  -0.67416485  0.16465252 -0.00861651
C   0.22372934  1.26764255  0.04402273
C  -0.27239195  2.54142935  0.20188443
C  -1.65448671  2.78369644  0.27445930
C  -2.54182963  1.74785275  0.15251585
N  -4.37098543 -0.45468746 -0.10103658
C  -2.07981906  0.41891245 -0.00062716
C  -2.99466121 -0.67670333 -0.13239329
C  -2.49068639 -1.95326519 -0.21620298
C  -1.10734299 -2.19508903 -0.14946545
H   3.58053328  1.45897819  0.90788281
H   2.19740665  1.17482714  1.98464344
H   2.36334361  2.71783871  1.13796802
H   3.21940049  1.72100167 -1.60330507
H   1.94297029  2.90830903 -1.32501190
H   1.60348088  1.46726227 -2.29724243
H   2.80648556 -2.90948169 -0.32523525
H   1.57884079 -2.69125064 -1.58808314
H   1.20898487 -3.59908284 -0.11161809
H   2.61566293 -1.64853928  1.89653805
H   1.06081106 -2.48685568  2.07601112
H   1.13385754 -0.72996829  2.24731580
H   0.40383547  3.38767920  0.25317931
H  -2.01352981  3.79844388  0.40797786
H  -3.60435849  1.95831215  0.19315448
H  -4.68543455  0.37585105 -0.58235638
H  -4.90573863 -1.25670992 -0.40497146
H  -3.17265337 -2.79231785 -0.31708465
H  -0.78081566 -3.22768733 -0.16920980

