55
Total Energy                               R     -1.020025214883947E+03
C  -0.02125784  0.84144515  1.78129736
C   1.07388979  0.31164753  2.70248826
C  -0.91045610  1.81943511  2.57495589
N   0.62380047  1.56517417  0.64933408
O   1.74808601  2.12434024  0.84889162
C  -0.14863929  2.04717747 -0.52740944
C  -0.53033974  3.52019916 -0.30571108
C   0.78186521  1.94351620 -1.74656048
C  -1.36478041  1.16229001 -0.77587782
C  -1.60314652 -0.01337643 -0.00855507
C  -0.88087097 -0.26470881  1.19407754
C  -1.09251008 -1.44907705  1.85098390
C  -2.00180259 -2.41198233  1.37399308
C  -2.76592706 -2.17611681  0.25414390
N  -3.73846840 -3.08571430 -0.15597918
C  -2.59785780 -0.93627927 -0.44841843
C  -3.40843976 -0.60008856 -1.55871920
C  -3.22229966  0.58365379 -2.22287277
C  -2.18269344  1.45111178 -1.84430038
H   1.71812902  1.12564667  3.03127304
H   1.68775303 -0.44465508  2.21040724
H   0.62361754 -0.13499939  3.58968125
H  -0.33362286  2.69632621  2.88219358
H  -1.28390074  1.31764883  3.47107410
H  -1.77403684  2.14981690  1.99544337
H   0.36534242  4.09540186 -0.06165115
H  -1.25604318  3.64046630  0.49899657
H  -0.96115616  3.93837643 -1.21744734
H   1.69842633  2.50787657 -1.57246721
H   0.28601697  2.35522764 -2.62694511
H   1.03922010  0.90301010 -1.95240560
H  -0.56281257 -1.67075201  2.77003554
H  -2.11837663 -3.34730691  1.91400209
H  -3.65710383 -3.98934925  0.28980167
H  -3.84186527 -3.19691198 -1.15501837
H  -4.19967605 -1.26733077 -1.88088142
H  -3.85931701  0.84577322 -3.06114820
H  -2.01756107  2.34837862 -2.43113671
N   3.52311573 -1.28534018 -0.71469996
C   3.80820985 -0.00810515 -1.42984595
C   2.04788017 -1.47851724 -0.61119404
C   4.12066520 -2.42573355 -1.46507078
C   4.11755833 -1.22160599  0.65098641
H   1.62019249 -0.61635908 -0.10657498
H   3.36138276 -0.05418741 -2.42128363
H   3.37569163  0.81116309 -0.85765546
H   4.88777469  0.11159474 -1.50802277
H   5.19595212 -1.10603169  0.55460510
H   3.69498091 -0.36709698  1.17591846
H   3.88262228 -2.14437389  1.17882690
H   3.68491695 -2.45386355 -2.46224909
H   5.19715990 -2.27615016 -1.52896066
H   3.89958470 -3.34885097 -0.93142026
H   1.63655304 -1.56464325 -1.61548730
H   1.85204893 -2.38671465 -0.04356661

