43
Total Energy                               R     -1.230243264365207E+03
C  -1.31718056 -0.16272799  1.66573789
C  -1.70779179  1.03610267  2.50917692
C  -1.71719692 -1.47152671  2.37631991
N  -2.10719771 -0.10994136  0.38030669
O  -2.96498015  0.68834175  0.25540090
C  -1.86227456 -1.07726518 -0.75732316
C  -2.97541771 -2.13840025 -0.62980695
C  -2.04284641 -0.28307223 -2.05818652
C  -0.45591332 -1.64534655 -0.68059960
C   0.51769037 -1.07550752  0.18138609
C   0.13892490 -0.20110003  1.23324109
C   1.11405374  0.44353358  1.95157699
C   2.47387013  0.22020025  1.69317255
C   2.88328300 -0.69242470  0.74069660
N   4.22520077 -0.97661677  0.56532621
C   1.88878957 -1.38765777 -0.02671188
C   2.22723517 -2.37635980 -0.98051213
C   1.25472018 -2.99568609 -1.72159037
C  -0.09000083 -2.60434635 -1.59331391
H  -2.77546616  1.02252400  2.73117131
H  -1.45196068  1.97707727  2.02106512
H  -1.17753161  0.97366069  3.45888849
H  -2.79692339 -1.51877625  2.53527779
H  -1.22023080 -1.45309427  3.34786026
H  -1.38206493 -2.36090320  1.84465499
H  -3.95496905 -1.65723704 -0.61624733
H  -2.85841299 -2.76220699  0.25432124
H  -2.92495906 -2.77343931 -1.51432745
H  -3.04872900  0.12992276 -2.13315164
H  -1.89365246 -0.97197240 -2.88919331
H  -1.30761437  0.51871785 -2.12790518
H   0.85374806  1.12823226  2.74942262
H   3.21880628  0.75842033  2.27086059
H   4.85159352 -0.31298127  0.99888358
H   4.52268528 -1.19783341 -0.37362536
H   3.26162040 -2.66751572 -1.12372806
H   1.52031362 -3.76495348 -2.43814980
H  -0.82881855 -3.04372779 -2.25443156
B   0.40028780  2.88874109 -0.94553083
F   1.15075027  3.36569481  0.14802797
F   0.20464413  3.93597868 -1.87235369
F   1.09017250  1.83303215 -1.57303003
F  -0.85609167  2.43207897 -0.49111211

