35
Total Energy                               R     -8.609718736213704E+02
C  -1.87990190 -0.91652448 -0.08006776
C  -0.69391918  1.62379420  1.51219629
C  -2.27064328 -1.12185182  1.39619208
N  -1.75662569  0.49218822 -0.53006907
O  -2.97140879  1.17974608 -0.30235507
C  -0.61698437  1.28697933  0.01008004
C  -2.96109449 -1.58210391 -0.94089586
C  -0.60091480  2.61269072 -0.76198518
C   0.68795715  0.50469348 -0.34406637
C   1.92909772  1.21745971  0.14010128
O   2.47870325  2.00672416 -0.78742638
O   2.41375291  1.09680294  1.24726381
C   0.65568570 -0.92327431  0.19567426
C   1.90015751 -1.68934352 -0.17164779
O   2.69525419 -1.37127036 -1.03200371
O   2.03794795 -2.80727960  0.54822147
C  -0.56476011 -1.64475814 -0.38430726
H  -3.08537837 -0.45048064  1.67636882
H  -1.71566423  1.90874198  1.76968509
H  -0.39828066  0.80187918  2.16354791
H  -2.61965769 -2.14824318  1.54560196
H  -1.44581224 -0.95891363  2.09027473
H  -0.62277355 -2.66103279  0.01355081
H  -2.95546633 -2.66458769 -0.77900863
H  -0.43988605 -1.72450076 -1.47014077
H  -2.78298670 -1.39637623 -2.00408663
H  -3.95676416 -1.21150871 -0.69005218
H  -0.55496690  2.43788379 -1.84073945
H  -1.50230971  3.18541891 -0.54448288
H   0.74310231  0.46310930 -1.43452159
H   0.25706504  3.22514627 -0.47646846
H   2.82444104 -3.28920843  0.25535302
H   3.25863036  2.44352387 -0.41626419
H  -0.04696793  2.47302830  1.74837778
H   0.59797991 -0.92355034  1.28624489

