35
Total Energy                               R     -8.606660874936870E+02
C   1.95012811  0.91718103 -0.02545249
C   0.58173740 -1.68712555  1.57607867
C   2.33909985  1.09073004  1.45304947
N   1.78460176 -0.57703583 -0.24908318
O   2.71254006 -1.18351765 -0.64097902
C   0.50967293 -1.36313317  0.07281436
C   3.08219294  1.39602526 -0.92172698
C   0.56953843 -2.65109744 -0.73632575
C  -0.70312403 -0.48316936 -0.33765548
C  -1.99245461 -1.13712539  0.13819323
O  -2.53295004 -1.92967810 -0.78007055
O  -2.47950419 -0.95177193  1.22972783
C  -0.60531414  0.94710324  0.19142113
C  -1.82270435  1.75090009 -0.20925004
O  -2.63725823  1.40632704 -1.03648415
O  -1.89408783  2.90579892  0.44774008
C   0.64021652  1.61919636 -0.38805166
H   3.18286249  0.44803132  1.70819075
H   0.34641167 -0.84117272  2.21686185
H   1.51734410  0.90439763  2.14028183
H   3.11500437  2.48357555 -0.84023414
H   2.64817782  2.13148817  1.56244066
H   0.72980916  2.64203843 -0.02027027
H   4.04706305  0.99934650 -0.60715680
H   0.55238626  1.66401764 -1.47728795
H   2.90166395  1.13335959 -1.96591756
H   1.56992721 -2.07242260  1.83089409
H   0.64571367 -2.44752202 -1.80587933
H   1.40536866 -3.27471344 -0.42201011
H  -0.72910813 -0.45698153 -1.42939933
H  -0.34855634 -3.20810915 -0.55292917
H  -2.66622280  3.40786233  0.14869416
H  -3.34238746 -2.33108681 -0.43107651
H  -0.14577847 -2.47655378  1.76777815
H  -0.56574410  0.95951900  1.28256144

