34
Total Energy                               R     -1.057429566033088E+03
C   0.82283493  1.59855990  0.19923313
C   1.32931088  2.47695573 -0.94653554
C  -0.39062050  2.23471176  0.87867582
N   0.36549813  0.30265955 -0.41509810
O  -0.42841432  0.25200132 -1.27767802
C   0.99425695 -0.92207626  0.18365737
C  -0.00199529 -1.38595961  1.26562109
C   1.16355284 -1.98082591 -0.88948805
C   2.26378938 -0.33290950  0.83950686
C   3.48592169 -0.47043234 -0.04690558
O   3.85333873  0.34016209 -0.86602596
O   4.12777443 -1.61631077  0.17800094
C   1.91020154  1.12993309  1.17400288
H   0.52096730  2.69991982 -1.64441301
H   2.15766140  2.00581589 -1.47437766
H   1.67998927  3.41038068 -0.50392862
H  -1.16823523  2.46689872  0.14991882
H  -0.04891286  3.16362126  1.33876991
H  -0.79600192  1.58857546  1.65762853
H  -0.96330002 -1.62500902  0.81161437
H  -0.14194906 -0.63851583  2.04694486
H   0.42374170 -2.28573856  1.71178637
H   0.19070679 -2.29715376 -1.26661403
H   1.65381073 -2.84418835 -0.43909923
H   1.77042127 -1.62321396 -1.72396193
H   2.46052646 -0.89628873  1.75020954
H   4.88235307 -1.69179333 -0.42408628
H   2.78326690  1.77660749  1.11006464
H   1.53222740  1.17477753  2.19484044
B  -3.64256928 -0.30160431 -0.06350861
F  -2.98098307 -1.43778814 -0.57674351
F  -3.44704106  0.79050294 -0.93361482
F  -5.02256978 -0.57426141  0.04647534
F  -3.12363041  0.01156297  1.20909958

