46
Total Energy                               R     -8.473242902096642E+02
C   1.04888645  1.80611936 -0.12039191
C  -0.07416882  1.95422267 -1.15418306
C   1.32983822  3.18540582  0.47979686
N   0.76247104  0.86249360  0.99705241
O  -0.59756391  0.78552669  1.34823371
C   1.36191241 -0.45536264  0.69628277
C   1.54316110 -1.23373925  1.99511413
C   0.57501113 -1.32890256 -0.29369971
C   2.71319732  0.02686853  0.10308057
C   3.46982691 -1.04934914 -0.61852531
O   3.44445729 -1.26468627 -1.81384059
O   4.20601556 -1.80048425  0.21263055
C   2.31170006  1.20863294 -0.77963888
H  -0.97473571  2.38662928 -0.71131567
H  -0.34425937  1.00201265 -1.61304039
H   0.26080085  2.62263808 -1.95407587
H   0.46690699  3.53629840  1.05548016
H   1.53444244  3.92396729 -0.30271464
H   2.19455601  3.14958256  1.14922067
H   0.56929549 -1.44254021  2.44718668
H   2.13894605 -0.66390854  2.71374965
H   2.03838209 -2.19244881  1.81989018
H  -0.44025449 -1.48682273  0.07515097
H   1.04397118 -2.31278254 -0.39352271
H   0.50955978 -0.89133371 -1.29132682
H   3.33505443  0.35959978  0.93726087
H   4.64466070 -2.50136024 -0.28999193
H   2.08021665  0.85809217 -1.78775106
H   3.12108760  1.93710655 -0.86720173
N  -3.94638215 -0.48399707 -0.18112290
C  -5.27441625 -1.06359678 -0.52619667
C  -4.09557045  0.97146244  0.10462666
C  -3.39662264 -1.17143041  1.02335460
C  -3.00996314 -0.66809448 -1.32595094
H  -4.49926662  1.46126126 -0.77985693
H  -5.94882431 -0.92143837  0.31635521
H  -5.66123464 -0.55310556 -1.40672370
H  -5.14977045 -2.12538780 -0.73197501
H  -2.89944563 -1.73361325 -1.52052083
H  -3.42279196 -0.16607026 -2.19933919
H  -2.05073456 -0.23227392 -1.05870974
H  -4.09730024 -1.04197015  1.84683102
H  -3.27786088 -2.22947975  0.79495923
H  -2.43316171 -0.72329902  1.26742477
H  -4.77482081  1.09484539  0.94644360
H  -3.11606636  1.38005749  0.34840261

