48
Total Energy                               R     -8.862667272031517E+02
C  -0.73496418 -1.02516681  0.77199907
C  -0.96313030 -1.72521423  2.10893604
C   0.03939169 -1.92539589 -0.19403576
N   0.00182875  0.24499966  0.98355156
O   1.14648311  0.27404766  1.52732055
C  -0.62078465  1.45639731  0.39396675
C  -0.77005901  2.53536672  1.46365202
C   0.22607166  1.96085783 -0.77689080
C  -1.93825098  0.87798925 -0.05580893
C  -2.00316601 -0.49186431  0.15631608
C  -3.12964934 -1.22332939 -0.18916603
C  -4.20670574 -0.54792257 -0.75656701
O  -5.35948256 -1.19704454 -1.11757943
C  -4.15154834  0.82864311 -0.97929400
C  -3.01362713  1.54443092 -0.62815988
H  -0.00823678 -2.00512691  2.56018313
H  -1.54473784 -2.63615986  1.94990310
H  -1.50820566 -1.08111371  2.80283657
H   1.01501264 -2.18590072  0.22462789
H   0.18851642 -1.43195877 -1.15719071
H  -0.52153081 -2.84815937 -0.36043053
H   0.21032735  2.85616091  1.82435484
H  -1.35758236  2.17153266  2.30982104
H  -1.27702185  3.40411574  1.03710542
H   1.22601184  2.24264879 -0.43596792
H  -0.24867915  2.84232269 -1.21487540
H   0.31911885  1.19739174 -1.55250905
H  -3.18069484 -2.29532268 -0.02003119
H  -5.30432774 -2.13203129 -0.89305730
H  -5.00599887  1.32738257 -1.42374422
H  -2.97516781  2.61546465 -0.80048359
N   4.21754374 -0.23235320 -0.53344006
C   4.26353742  1.09866454  0.13704095
C   5.47048631 -0.44040716 -1.31174902
C   4.08206371 -1.30358133  0.49489450
C   3.04394872 -0.28107151 -1.45059216
H   5.55204194  0.34804951 -2.05831207
H   5.12412480  1.12343616  0.80354957
H   4.35641747  1.86969723 -0.62611260
H   3.34393689  1.23519470  0.70307353
H   2.14629792 -0.12828899 -0.85997737
H   3.14596033  0.50815599 -2.19350165
H   3.01757442 -1.25627017 -1.93387388
H   4.94610606 -1.26437201  1.15600129
H   3.16689123 -1.13049594  1.05841283
H   4.03872373 -2.26708310 -0.01012378
H   6.31764955 -0.40020589 -0.62910026
H   5.42417733 -1.41399289 -1.79653821

