36
Total Energy                               R     -1.096483548604409E+03
C   1.58111290 -0.30295870  1.33486676
C   2.46070799  0.34619704  2.40299996
C   0.86012155 -1.54956309  1.85279780
N   2.48315399 -0.74563603  0.20809728
O   3.36404925 -1.50386143  0.36208751
C   2.15218411 -0.13594901 -1.13291936
C   3.39200951  0.61573806 -1.61732972
C   1.77282810 -1.28637627 -2.06840627
C   1.00116511  0.74668904 -0.74525015
C   0.68848867  0.65658148  0.60080241
C  -0.35352602  1.38219684  1.15368334
C  -1.09278755  2.20816588  0.31249012
O  -2.14291694  2.95136699  0.77048756
C  -0.78586703  2.30724832 -1.04633524
C   0.26396493  1.57524302 -1.57981410
H   3.15601617 -0.38319649  2.82101547
H   1.80064371  0.70057123  3.19632962
H   3.01168923  1.19581626  1.99659937
H   1.57575724 -2.24982588  2.28623747
H   0.29546796 -2.03783986  1.05758556
H   0.16666154 -1.22323900  2.62916694
H   4.21989160 -0.07447854 -1.78648153
H   3.68911631  1.38647641 -0.90445754
H   3.13109467  1.09304688 -2.56339061
H   2.62695205 -1.94575168 -2.23080137
H   1.47979354 -0.84322539 -3.02164680
H   0.93156517 -1.85651928 -1.67224393
H  -0.60042003  1.30315469  2.20781548
H  -2.29828295  2.78023532  1.70545624
H  -1.38348754  2.95680574 -1.67593890
H   0.49794036  1.64867545 -2.63646865
B  -2.95123529 -1.17311650 -0.21236978
F  -1.77101075 -1.36937642 -0.95783876
F  -3.84653335 -2.23502085 -0.46901728
F  -2.64609920 -1.14384588  1.16397725
F  -3.55166476  0.04546635 -0.58931261

