48
Total Energy                               R     -8.863815706595080E+02
C  -1.81727171 -0.24355173 -1.26333377
C  -2.81477455  0.31862630 -2.27607837
C  -0.74595940 -1.04129118 -2.02781635
N  -2.55154831 -0.99667182 -0.20779330
O  -2.83370374 -2.33038370 -0.56128779
C  -1.83707207 -0.85728534  1.09367464
C  -2.85471206 -0.86066032  2.23448630
C  -0.77309401 -1.92895603  1.39251148
C  -1.17582108  0.48489203  0.90699773
C  -1.16204798  0.83417350 -0.43576966
C  -0.55084708  2.00222232 -0.86916551
C   0.05935428  2.82074077  0.07879911
O   0.70118141  3.98601745 -0.27272326
C   0.04754951  2.48346841  1.43141549
C  -0.57316713  1.30943718  1.84735234
H  -3.35638894 -0.49726102 -2.76451206
H  -2.30483956  0.89289075 -3.05606053
H  -3.54315360  0.97227916 -1.78869329
H  -1.20380588 -1.83665991 -2.62058147
H  -0.00883729 -1.49293224 -1.36463472
H  -0.21295438 -0.37509617 -2.71308701
H  -3.39431784 -1.81269774  2.25806095
H  -3.58361425 -0.05502232  2.11176539
H  -2.36165770 -0.73384561  3.20355442
H  -1.22997383 -2.91476783  1.51043455
H  -0.26171465 -1.68198391  2.32785313
H  -0.01733598 -1.99676986  0.60923814
H  -0.52678753  2.27418383 -1.92142471
H   0.65059179  4.12094197 -1.22452423
H   0.53109812  3.14149883  2.14583762
H  -0.57196414  1.04578563  2.90102230
N   3.29118336 -0.86695267 -0.09779223
C   2.88173836 -2.04714708 -0.91004228
C   4.62700117 -0.39089812 -0.55422935
C   2.29174989  0.22759181 -0.26273137
C   3.36192444 -1.25366080  1.33936275
H   5.34855711 -1.19609620 -0.42761024
H   2.79829647 -1.74351645 -1.95201814
H   3.63844272 -2.82262017 -0.80300962
H   1.92279681 -2.40939887 -0.54585832
H   2.37711135 -1.59207726  1.65813823
H   4.09004119 -2.05536443  1.45192580
H   3.66586969 -0.38442862  1.92008982
H   2.22694141  0.48549960 -1.31800427
H   1.33000095 -0.12524289  0.10132553
H   2.62264820  1.08735305  0.31676759
H   4.55673680 -0.11109453 -1.60401583
H   4.91417207  0.47069699  0.04597685

