47
Total Energy                               R     -3.384724240816120E+03
C   0.12734857 -0.79765966  0.79245462
C  -0.01443835 -1.67122399  2.03983644
C   0.68455474 -1.66405540 -0.35113362
N   0.93897653  0.40235880  1.12885689
O   2.31018768  0.18768072  1.04476735
C   0.46687090  1.56310977  0.32780168
C   0.63368830  2.84064481  1.15264964
C   1.17972385  1.75769703 -1.02264132
C  -0.98000264  1.19510950  0.11178267
C  -1.17420509 -0.15598295  0.37884033
C  -2.42253406 -0.74302108  0.22735250
C  -3.47162423  0.06391669 -0.20235784
Br  -5.20527900 -0.71147423 -0.42225572
C  -3.29923832  1.41614405 -0.47484243
C  -2.03664161  1.98644535 -0.31408997
H   0.97452906 -2.00139688  2.37169369
H  -0.61846028 -2.56310818  1.84221922
H  -0.48075932 -1.11143358  2.85564086
H   1.67381940 -2.03954755 -0.08271755
H   0.77297585 -1.10977780 -1.28720748
H   0.02325779 -2.51851521 -0.52905457
H   1.69116649  2.98779272  1.39277627
H   0.07528112  2.77402758  2.09079121
H   0.28624063  3.72306168  0.60487252
H   2.24563421  1.92718168 -0.85820267
H   0.76435085  2.62777070 -1.54187129
H   1.06998238  0.89322307 -1.67999634
H  -2.57614709 -1.79649463  0.43670780
H  -4.13342513  2.02392685 -0.80653899
H  -1.89691219  3.04278119 -0.52412023
N   5.10560820 -0.49109542 -0.51177318
C   6.40661895 -0.79036558 -1.16457425
C   3.99976076 -0.54419001 -1.51263026
C   4.82812473 -1.49180821  0.56056039
C   5.13809159  0.87254253  0.09537260
H   4.19753022  0.19391602 -2.28935539
H   6.36126836 -1.78854953 -1.59785627
H   6.58831983 -0.05198649 -1.94422421
H   7.19523000 -0.74394362 -0.41443720
H   5.94133110  0.90342561  0.83126500
H   5.32964712  1.59775291 -0.69504752
H   4.16428628  1.04450615  0.56146566
H   4.79878077 -2.48302087  0.10881232
H   5.63090125 -1.44186300  1.29576738
H   3.86455498 -1.23215423  1.00665073
H   3.97050030 -1.54410155 -1.94464643
H   3.08069816 -0.31598187 -0.96844825

