35
Total Energy                               R     -3.594840193916801E+03
C  -0.43627638  1.10517741  1.42974886
C  -1.02613121 -0.04485641  2.23807687
C  -0.04627687  2.29251620  2.32271028
N  -1.47851592  1.62729652  0.46724650
O  -2.55656495  1.93884446  0.80523804
C  -0.99239250  1.76387512 -0.95743221
C  -1.99613288  1.10929183 -1.89943058
C  -0.85984536  3.27262801 -1.21881938
C   0.33318225  1.06457213 -0.84820908
C   0.63992960  0.71078353  0.45688024
C   1.82495733  0.06376676  0.76843375
C   2.69518428 -0.21614344 -0.27688654
Br   4.33564013 -1.10327156  0.10418676
C   2.40305401  0.12942270 -1.59342376
C   1.20822712  0.77741183 -1.88359363
H  -1.88327553  0.29173514  2.82304586
H  -0.25018543 -0.38461378  2.92651622
H  -1.31583565 -0.87285027  1.59351099
H  -0.89278605  2.59866312  2.94018540
H   0.30993912  3.13865151  1.73397371
H   0.76126918  1.95133746  2.97251502
H  -2.97100697  1.59346468 -1.82684613
H  -2.09207800  0.04454939 -1.69468930
H  -1.61920419  1.24218620 -2.91504648
H  -1.83923507  3.75319449 -1.18425463
H  -0.44517280  3.38649613 -2.22177057
H  -0.18574954  3.74681388 -0.50429386
H   2.05644379 -0.21283232  1.79050760
H   3.09634796 -0.10424160 -2.39253182
H   0.97226039  1.04819578 -2.90678186
B  -3.34628533 -1.99303357 -0.13922562
F  -1.96486635 -2.08129227 -0.42040017
F  -4.07931276 -2.22549971 -1.32074772
F  -3.68864968 -2.95689749  0.83035057
F  -3.64499947 -0.70448639  0.35241874

