35
Total Energy                               R     -9.833713151212294E+02
C   1.07460679  1.42636164  0.09256783
C   1.70956438  2.20831196 -1.06038735
C  -0.08427344  2.19468302  0.72028073
N   0.51080654  0.15963002 -0.50673355
O  -0.30295359  0.15916797 -1.35313065
C   1.07990300 -1.09031335  0.08748123
C   0.10917932 -1.46750338  1.22512971
C   1.15044091 -2.18425692 -0.95847896
C   2.40699272 -0.56523311  0.65098431
O   3.37711352 -0.63007621 -0.37169426
C   4.70366857 -0.43212952  0.08695135
C   2.09174003  0.87329864  1.09366990
H   0.96093061  2.46785271 -1.81052813
H   2.51963707  1.64532651 -1.52570121
H   2.11983282  3.12675883 -0.63812568
H  -0.80658276  2.50103419 -0.03755675
H   0.33397343  3.08770405  1.18812902
H  -0.58406845  1.60069111  1.48615190
H  -0.87280831 -1.69243796  0.81025279
H   0.01026394 -0.68393348  1.97592127
H   0.51586347 -2.36152021  1.69967949
H   0.14667180 -2.49584053 -1.25006721
H   1.66213572 -3.03932324 -0.51400176
H   1.70175896 -1.86635774 -1.84255685
H   2.71530242 -1.18583947  1.49753394
H   5.36042259 -0.61831916 -0.76204315
H   4.94225030 -1.13494333  0.89289760
H   4.86345187  0.59087287  0.44212401
H   2.98683780  1.49274644  1.11087348
H   1.67465479  0.86855242  2.10109781
B  -3.50797638 -0.13190277  0.02185730
F  -3.25327472  0.94026743 -0.85761819
F  -2.94302531  0.14892716  1.28266989
F  -4.90139164 -0.30565675  0.16027127
F  -2.93903113 -1.31386763 -0.49830358

