47
Total Energy                               R     -7.731500850440120E+02
C   1.08955304  1.29527922  0.00536047
C   1.65987152  2.21027148 -1.07836746
C  -0.18186803  1.89607835  0.59594263
N   0.80024069 -0.03393604 -0.58668759
O  -0.13291084 -0.21124752 -1.42997746
C   1.53704196 -1.16101625  0.02713926
C   0.65566223 -1.81882558  1.09643533
C   1.93080550 -2.18473983 -1.02642197
C   2.71462035 -0.42179235  0.68202651
O   3.77053894 -0.30073362 -0.25796589
C   4.98452672  0.15522695  0.30616067
C   2.12084216  0.93485670  1.08547107
H   0.94064115  2.33687352 -1.89199684
H   2.58838328  1.80823108 -1.48923729
H   1.86990468  3.19442135 -0.65207973
H  -0.92657668  2.08222325 -0.18132479
H   0.05684279  2.84999428  1.07335683
H  -0.61482638  1.23634448  1.35171472
H  -0.24366983 -2.23176237  0.63403768
H   0.35143175 -1.11181248  1.87150871
H   1.20258351 -2.63754913  1.57021560
H   1.04153329 -2.68798110 -1.41206072
H   2.57803465 -2.94041840 -0.57509923
H   2.46204433 -1.72875602 -1.86184135
H   3.07822269 -0.97835092  1.55287305
H   5.74045205  0.09759882 -0.47722925
H   5.28751387 -0.48067582  1.14667914
H   4.91445224  1.19215153  0.65160081
H   2.88401616  1.70667012  1.18592660
H   1.63107517  0.83503353  2.05656080
N  -3.92211984 -0.08563926  0.06744837
C  -3.61570853  0.44678240 -1.29138045
C  -4.04586847  1.04991390  1.02538235
C  -5.20233392 -0.84723423  0.02712385
C  -2.81988558 -0.98808781  0.50825226
H  -3.10471208  1.59676611  1.04181315
H  -4.43688626  1.08822640 -1.60686396
H  -2.69065860  1.01745721 -1.24219584
H  -3.50609040 -0.39033518 -1.97836242
H  -2.72836141 -1.80397380 -0.20657009
H  -1.89860876 -0.41399200  0.54235858
H  -3.06003510 -1.37654353  1.49653187
H  -5.99824665 -0.17828855 -0.29536237
H  -5.09614876 -1.67109315 -0.67648340
H  -5.41345191 -1.22926018  1.02445923
H  -4.85322740  1.70003868  0.69250617
H  -4.26705582  0.65136070  2.01403858

