47
Total Energy                               R     -7.732601633644310E+02
C  -2.53961567 -0.82410341 -0.66361343
C  -2.16905852 -2.28896782 -0.39480703
C  -3.81085547 -0.80360442 -1.51486884
N  -2.77557824  0.00025164  0.55537978
O  -3.33623399 -0.71724548  1.63156693
C  -1.52994483  0.71702066  0.89609938
C  -1.84639300  1.91012850  1.79097624
C  -0.43629798 -0.12998161  1.56874724
C  -1.11091368  1.15341458 -0.51205850
O   0.23327084  1.60486547 -0.52454943
C   0.66986710  2.02772211 -1.79873021
C  -1.37895255 -0.08530021 -1.37054032
H  -3.00884280 -2.84333210  0.03129484
H  -1.32046762 -2.38862435  0.28425950
H  -1.89936393 -2.77142471 -1.33998995
H  -4.65889184 -1.20575908 -0.95096370
H  -3.69092373 -1.41093486 -2.41856390
H  -4.05786746  0.21733892 -1.82128011
H  -2.17611245  1.57954118  2.78059346
H  -2.63820438  2.52695242  1.35576699
H  -0.96020415  2.53703582  1.93002237
H  -0.84800531 -0.65475620  2.43447544
H   0.37834465  0.50663647  1.92361329
H  -0.00184522 -0.87235363  0.89786708
H  -1.75286464  1.98483392 -0.83477693
H   1.67474854  2.43429820 -1.67858693
H   0.01231081  2.80901645 -2.20113351
H   0.70671428  1.19569224 -2.51086671
H  -0.48151474 -0.71055122 -1.38809203
H  -1.61936660  0.16707360 -2.40583158
N   3.61696300 -0.47091105  0.11980222
C   5.02305090 -0.71084656 -0.31121071
C   3.29669162 -1.34954959  1.28043080
C   3.45371009  0.95711837  0.51778180
C   2.69117280 -0.78132400 -1.00687349
H   3.41736496 -2.38770614  0.97559781
H   5.68810520 -0.48269087  0.51988528
H   5.12704172 -1.75538843 -0.59936289
H   5.24455880 -0.06395716 -1.15816432
H   2.93807085 -0.13771655 -1.84930239
H   2.81645688 -1.82704588 -1.28288848
H   1.67191296 -0.59585206 -0.67747804
H   4.13716556  1.17028908  1.33780577
H   3.68767096  1.58670641 -0.33884612
H   2.42453317  1.11537636  0.83292021
H   3.97988948 -1.11523670  2.09493507
H   2.26883318 -1.16416469  1.58667887

