29
Total Energy                               R     -3.057093566505325E+03
C   1.20177908 -1.34375759  0.02606315
C   1.85455038 -2.37551665 -0.88190383
C   1.50614082 -1.66945076  1.49931935
N   1.85949238  0.00000151 -0.25712715
O   2.96101281 -0.00000142 -0.67231176
C   1.20178404  1.34375295  0.02606312
C   1.50615659  1.66944530  1.49931919
C   1.85454566  2.37551999 -0.88190354
C  -0.30355315  1.24440024 -0.26474927
C  -0.93937518 -0.00000178  0.32292171
Br  -2.86617627  0.00000132 -0.08034411
C  -0.30355404 -1.24439895 -0.26476083
H   2.89609417 -2.55146058 -0.61420815
H   1.79169204 -2.07931893 -1.93071182
H   1.30500970 -3.30928630 -0.75288242
H   2.57520456 -1.58444569  1.70070634
H   1.20498597 -2.70760437  1.64890243
H   0.95325215 -1.04930623  2.20134038
H   2.57522317  1.58444585  1.70069258
H   0.95328123  1.04929419  2.20134423
H   1.20499531  2.70759639  1.64890608
H   2.89609288  2.55146037 -0.61421939
H   1.30500732  3.30928907 -0.75286854
H   1.79167423  2.07932993 -1.93071297
H  -0.45290582  1.25439838 -1.34781230
H  -0.75153100  2.15160749  0.14371310
H  -0.90286332 -0.00000671  1.41015951
H  -0.45290085 -1.25438523 -1.34782486
H  -0.75153670 -2.15160937  0.14368962

