30
Total Energy                               R     -6.131033863315331E+02
C  -1.49945531 -0.70600960 -0.15593728
C  -1.52060382 -1.48390675  1.16303532
C  -2.85210775 -0.80444933 -0.84847752
N  -1.17448056  0.70832991  0.11930704
O  -1.98598437  1.47445099  0.72596532
C   0.25778351  1.06881715 -0.01131176
C   0.37886265  2.35078050 -0.83147198
C   0.84149935  1.29177725  1.38618942
C   0.83854534 -0.15277611 -0.79530143
C   2.01072344 -0.81436329 -0.08632099
O   1.88740575 -1.78988911  0.65908407
N   3.20682804 -0.26251561 -0.33931280
C  -0.33964133 -1.10922524 -1.07077107
H  -2.27617767 -1.07070724  1.83628112
H  -0.55202441 -1.45531903  1.66431574
H  -1.77120496 -2.52912388  0.96476743
H  -3.65964170 -0.48294270 -0.18666413
H  -3.03777758 -1.84435967 -1.12877555
H  -2.87668587 -0.19524502 -1.75551420
H  -0.11715795  3.18260879 -0.32587405
H  -0.06369597  2.22600880 -1.82301478
H   1.43489101  2.60431428 -0.95431517
H   0.29460010  2.09496480  1.88412798
H   1.88804195  1.59431338  1.31458886
H   0.77825723  0.39593688  2.00652537
H   1.21886187  0.21926532 -1.74722343
H   3.29166571  0.56240756 -0.91165587
H   4.02398841 -0.59195892  0.15172308
H  -0.06281815 -2.15171519 -0.91444871
H  -0.64456201 -0.99951085 -2.11299478

