30
Total Energy                               R     -6.132058869045237E+02
C  -1.56672898 -0.57193590 -0.01594193
C  -1.47661150 -1.49178076  1.21557590
C  -2.97945993 -0.73361858 -0.57131507
N  -1.26901597  0.85752951  0.33343575
O  -1.76540545  1.69246218 -0.71085399
C   0.22459017  0.95675289  0.36346274
C   0.71821599  2.36757193  0.04308047
C   0.75617310  0.65165697  1.77344417
C   0.71696062 -0.05607094 -0.75487972
C   1.98279390 -0.78563689 -0.36899555
O   1.99054671 -1.88442832  0.20197416
N   3.13026814 -0.15351734 -0.67225133
C  -0.48764737 -0.96042964 -1.05173256
H  -1.94150508 -1.02896789  2.09074777
H  -0.45774004 -1.77511255  1.47414161
H  -2.00977584 -2.42432798  1.00866949
H  -3.72918791 -0.43939237  0.17137288
H  -3.15093693 -1.78707899 -0.81354067
H  -3.14361091 -0.15012146 -1.47518807
H   0.28393989  3.09841769  0.73168679
H   0.48560999  2.67459300 -0.97522135
H   1.80529115  2.40442805  0.16651538
H   0.34407140  1.38315173  2.47368854
H   1.84504956  0.75502658  1.79989674
H   0.51539318 -0.33728889  2.15014106
H   0.94610405  0.53777432 -1.64200106
H   3.12699645  0.76177496 -1.09283048
H   4.01007996 -0.53687756 -0.36244163
H  -0.24238564 -2.02312978 -0.99445828
H  -0.84700447 -0.76427934 -2.06462184

