54
Total Energy                               R     -1.311274858813761E+03
C  -1.35971242 -2.11487429 -0.52714531
C  -0.19207816 -2.82481663 -1.22439485
C  -2.51130592 -3.13616192 -0.51588993
N  -0.92814861 -1.73940330  0.86131403
O   0.31637583 -1.05306700  0.75599157
C  -1.88965964 -0.83911412  1.57973854
C  -3.15066457 -1.59307480  2.03682819
C  -1.22223817 -0.33728607  2.86616679
C  -2.27664826  0.38972033  0.73248028
C  -2.78385114 -0.00891374 -0.66549301
C  -3.15898144  1.24349768 -1.40832131
O  -4.23951086  1.79563876 -1.30328745
O  -2.19217137  1.74456576 -2.18089244
C  -1.73924805 -0.87686427 -1.36531178
H   0.14210944 -3.68894611 -0.63998357
H   0.66108813 -2.16716064 -1.37761674
H  -0.51785368 -3.19037011 -2.20302915
H  -2.33539086 -3.90969831  0.23663312
H  -2.56285176 -3.62872420 -1.49096181
H  -3.49578321 -2.71053804 -0.33574260
H  -2.88814082 -2.57090394  2.44952027
H  -3.89503817 -1.74655128  1.25881883
H  -3.64418386 -1.02109138  2.82757467
H  -0.91108109 -1.17927504  3.49404908
H  -1.93647478  0.26059745  3.44034820
H  -0.34925463  0.28066735  2.66375415
H  -1.40029230  1.03452353  0.61752362
H  -3.04161794  0.96846486  1.26024557
H  -3.72455812 -0.55447284 -0.55816157
H  -2.49925670  2.56789226 -2.58629316
H  -0.83611112 -0.28436465 -1.53333168
H  -2.10476067 -1.19923574 -2.34611012
N   3.91804539 -1.05198405 -0.32944261
C   2.91058460 -0.22089037 -1.05213200
C   5.25334985 -0.88820662 -0.96857423
C   3.98829684 -0.61341756  1.09338060
C   3.51260764 -2.48545615 -0.38377134
H   5.18752136 -1.21640793 -2.00452543
H   3.22308661  0.82009394 -1.00058502
H   2.87394217 -0.54811385 -2.09033001
H   1.94097068 -0.35990101 -0.57315226
H   2.55001391 -2.59274468  0.11222145
H   3.43594021 -2.78867267 -1.42650230
H   4.26853168 -3.08088748  0.12571787
H   4.29790732  0.42950601  1.12309755
H   3.00228789 -0.72788511  1.54054831
H   4.71434821 -1.23551537  1.61474584
H   5.53486691  0.16258025 -0.92537181
H   5.97917717 -1.49381526 -0.42824217
B   1.07282770  2.94269429  0.38206751
F   0.73323024  2.25436150 -0.79815963
F   1.96688951  3.99185116  0.06786457
F  -0.09299356  3.48337912  0.96640891
F   1.69033892  2.06321275  1.29298016

