47
Total Energy                               R     -8.274597483419022E+02
C   0.97259188  1.70213600 -0.39904858
C  -0.41399183  1.57495891 -1.04102409
C   1.33307766  3.18801875 -0.33133188
N   1.09134097  1.13051814  0.97299307
O  -0.09756281  1.19266087  1.72934400
C   1.67385492 -0.22688798  0.89127214
C   2.28683697 -0.59084487  2.24066083
C   0.69637317 -1.33971171  0.48158566
C   2.75059712  0.03473065 -0.19337139
C   3.36412402 -1.21977082 -0.77724630
O   2.93345753 -1.77236904 -1.79772702
N   4.41878075 -1.71237241 -0.10900476
C   2.01671015  0.90566032 -1.21150271
H  -1.15816652  2.17357218 -0.51054396
H  -0.76633664  0.54287182 -1.06597791
H  -0.36843652  1.93749910 -2.07324298
H   0.66649926  3.71429898  0.36007789
H   1.24039568  3.66329158 -1.31396106
H   2.36138978  3.32377481  0.01722041
H   1.51001660 -0.62632336  3.00995758
H   3.03462483  0.14784337  2.54388861
H   2.76521155 -1.57401644  2.21097104
H  -0.13771046 -1.37795577  1.18516779
H   1.19274516 -2.31452545  0.50825884
H   0.29043182 -1.20187617 -0.52172020
H   3.54983870  0.61056281  0.28209084
H   4.76011783 -1.27046299  0.72932906
H   4.85208366 -2.57106756 -0.41244093
H   1.51744602  0.27144955 -1.94717820
H   2.70387741  1.55673700 -1.75765157
N  -4.12507332 -0.52344346 -0.11010035
C  -3.95076319  0.69737388 -0.94814708
C  -4.86380595 -0.16843854  1.13465918
C  -4.89651185 -1.54544412 -0.87306901
C  -2.78621438 -1.07294099  0.24928182
H  -4.28507213  0.57111901  1.68528773
H  -4.93449562  1.07471113 -1.22223478
H  -3.40995683  1.44318371 -0.36924217
H  -3.38730426  0.43270548 -1.84104679
H  -2.26399437 -1.34452805 -0.66604469
H  -2.22901098 -0.30820146  0.78778153
H  -2.92626159 -1.95151874  0.87692242
H  -5.87252388 -1.13229225 -1.12242565
H  -4.34838668 -1.78975373 -1.78135617
H  -5.01088797 -2.43267217 -0.25296774
H  -5.83446398  0.24148693  0.86073573
H  -4.99143864 -1.06820080  1.73388225

