55
Total Energy                               R     -1.020011543025861E+03
C   0.20849162  0.25278969  1.58384000
C  -0.91254930  1.25285227  1.86253838
C   0.91026600 -0.11499011  2.90514532
N  -0.40716178 -0.97760313  1.01276029
O  -1.53074012 -1.33781298  1.49245954
C   0.35454935 -2.04067266  0.30155180
C   0.66324207 -3.17223339  1.29517220
C  -0.55790664 -2.56322811 -0.81934261
C   1.62537109 -1.48250057 -0.31979319
C   1.96553846 -0.10781394 -0.22287450
C   1.24357175  0.79512294  0.61163424
C   1.58433531  2.12063706  0.63304143
C   2.65369430  2.63618388 -0.14707395
N   2.97152629  3.98669100 -0.03869140
C   3.39136115  1.77230388 -0.92014327
C   3.07385736  0.39485648 -0.96495446
C   3.85181378 -0.50419364 -1.73587035
C   3.54131635 -1.83705054 -1.76485566
C   2.42070527 -2.32424731 -1.06505572
H  -1.65124741  0.81784372  2.53340368
H  -1.40945645  1.56475572  0.94093068
H  -0.50981989  2.13669613  2.35592784
H   0.21015869 -0.62185411  3.57415621
H   1.26216086  0.79706822  3.39230091
H   1.77185468 -0.76320122  2.73567965
H  -0.26042343 -3.52717348  1.75606256
H   1.34610842 -2.84336136  2.07990290
H   1.12354563 -4.01144591  0.77110537
H  -1.50308290 -2.92220277 -0.41107840
H  -0.07389226 -3.39412503 -1.33362806
H  -0.76104973 -1.77741545 -1.55079060
H   1.05905892  2.81685336  1.27680588
H   2.19137583  4.58319300  0.19778004
H   3.49778839  4.35643771 -0.81759051
H   4.23273397  2.13979785 -1.50117354
H   4.69902344 -0.11901014 -2.29505693
H   4.14544711 -2.52671954 -2.34530995
H   2.17943398 -3.37826079 -1.14478546
N  -4.26404539  0.60125956 -0.84574383
C  -4.47864186  0.32279467  0.60350513
C  -3.06529420 -0.14457574 -1.32500142
C  -5.46188835  0.16272367 -1.61711531
C  -4.05026979  2.06270815 -1.04438007
H  -2.19732428  0.19231843 -0.76297865
H  -4.61566714 -0.74880180  0.73703425
H  -3.60755547  0.66304288  1.15804917
H  -5.36710747  0.85980375  0.93177410
H  -4.92804628  2.59702790 -0.68518680
H  -3.16828671  2.36646451 -0.48271001
H  -3.90287224  2.25226462 -2.10633557
H  -5.60519335 -0.90509826 -1.46088298
H  -6.32948888  0.71472013 -1.25967370
H  -5.29351617  0.36917315 -2.67263496
H  -3.23086662 -1.20751605 -1.16310969
H  -2.92948838  0.05999660 -2.38574706

