53
Total Energy                               R     -1.311025763555478E+03
C   1.15825399  0.63436495  0.32167033
C   0.73138615  1.93187069  1.00774557
C   0.29623225  0.44570091 -0.93938946
N   1.11848006 -0.47924282  1.30848773
O  -0.16213666 -1.02819598  1.49253539
C   2.16519955 -1.48327488  0.97120279
C   2.68118922 -2.12926949  2.25759129
C   1.73234772 -2.60462689  0.00924867
C   3.19268162 -0.59516479  0.31324033
C   2.61957271  0.61616646 -0.05299819
C   3.35815960  1.59486031 -0.70295801
C   4.69807325  1.33387224 -0.98528505
O   5.49587862  2.25280777 -1.62770789
C   5.28501523  0.12308583 -0.62257966
C   4.52792259 -0.84639016  0.03064740
H  -0.29489486  1.84063915  1.37494680
H   0.76177547  2.77715779  0.31331989
H   1.38240423  2.15935991  1.85628834
H  -0.76006971  0.37117117 -0.67876920
H   0.57441077 -0.44321921 -1.50682458
H   0.41885926  1.31202306 -1.59653230
H   1.87348325 -2.67037909  2.76053886
H   3.07037695 -1.37447737  2.94614978
H   3.48046405 -2.84663763  2.04644048
H   0.93195433 -3.20705752  0.44630364
H   2.58278203 -3.26559128 -0.18428536
H   1.38574766 -2.22239994 -0.95212014
H   2.91417467  2.54403860 -0.99243376
H   4.98727756  3.04132887 -1.84216182
H   6.33098831 -0.04916739 -0.85399674
H   4.99000553 -1.78854960  0.31116826
N  -3.08753112 -2.37753597 -0.76777634
C  -4.16672133 -2.83156453 -1.68792691
C  -1.77182242 -2.45354695 -1.46514680
C  -3.35033150 -0.96928724 -0.34951116
C  -3.05526307 -3.25295679  0.43785109
H  -1.60011729 -3.48417742 -1.77177818
H  -4.17626012 -2.18255984 -2.56205360
H  -3.96475813 -3.85904719 -1.98587596
H  -5.12052731 -2.77258719 -1.16639600
H  -4.01713535 -3.18798380  0.94363569
H  -2.86551380 -4.27720195  0.12127422
H  -2.25866491 -2.90860371  1.09583076
H  -3.34983172 -0.33824469 -1.23552939
H  -4.32087530 -0.92947193  0.14135064
H  -2.56629939 -0.65985686  0.33811864
H  -1.79950225 -1.80036182 -2.33586054
H  -0.99948558 -2.12963117 -0.77185597
B  -3.58581410  2.57072113  0.28763156
F  -4.76001488  2.05142443 -0.29872346
F  -2.53475911  2.52790573 -0.65048048
F  -3.80953383  3.90872348  0.67859601
F  -3.24676432  1.80254656  1.41937867

