53
Total Energy                               R     -1.310729603966496E+03
C  -0.63533579 -0.33381164 -1.61813089
C  -1.86463415  0.23795807 -2.31262042
C   0.31616601 -1.01359239 -2.61358713
N  -1.06657942 -1.40661488 -0.64305734
O  -1.78232004 -2.28519047 -0.93945377
C  -0.45895064 -1.26831105  0.73510396
C  -1.55238287 -1.39471109  1.78755931
C   0.57827393 -2.39469459  0.85800934
C   0.15624056  0.09570746  0.60773009
C   0.06355329  0.60612026 -0.67708047
C   0.60308413  1.83793315 -1.00914201
C   1.24614992  2.56061163 -0.00744524
O   1.81746916  3.77790106 -0.24472187
C   1.33520089  2.06002372  1.29343599
C   0.78939068  0.82381357  1.60469514
H  -2.38924538 -0.54044037 -2.86818873
H  -1.51369048  0.99286237 -3.01830580
H  -2.53947080  0.70612402 -1.59814896
H  -0.22462841 -1.75270805 -3.20686754
H   1.15699744 -1.48904200 -2.10826051
H   0.69782002 -0.23339405 -3.27405126
H  -2.05055894 -2.36259989  1.71745783
H  -2.28155742 -0.59183710  1.69733693
H  -1.06924759 -1.32240575  2.76350412
H   0.08414160 -3.36766495  0.84504922
H   1.08196658 -2.26109816  1.81658680
H   1.32116465 -2.34520012  0.06150078
H   0.53572393  2.23111655 -2.01878076
H   1.70236062  4.03591217 -1.16552205
H   1.84046933  2.64767917  2.05157750
H   0.86544649  0.43357758  2.61384344
N   4.55335713 -0.49977108  0.20634906
C   3.53947077 -0.57324344 -0.88348998
C   5.79988727 -1.19177008 -0.22713402
C   4.85632492  0.92848919  0.50757109
C   4.01389099 -1.16132184  1.42908882
H   5.56464064 -2.23238330 -0.44394652
H   3.93899563 -0.07982896 -1.76785218
H   3.33511807 -1.62079591 -1.09745013
H   2.63587628 -0.07024092 -0.54902932
H   3.11133230 -0.63796017  1.73923601
H   3.78687557 -2.19938015  1.19320466
H   4.76749989 -1.10934762  2.21331948
H   5.24771859  1.39980971 -0.39221658
H   3.93743059  1.42119028  0.82090722
H   5.59622866  0.96729628  1.30522973
H   6.18076104 -0.69882727 -1.11998868
H   6.53113054 -1.13135816  0.57706306
B  -4.61776336  0.33384117  0.46048514
F  -3.53716022  1.23970386  0.54120707
F  -5.04159368 -0.00500279  1.76167767
F  -5.68045002  0.93476185 -0.24315806
F  -4.20402930 -0.83284623 -0.21602132

