47
Total Energy                               R     -1.552030110836431E+03
C  -1.40059236 -2.08741212  0.34920419
C  -1.69746825 -2.60383388 -1.06368297
C  -2.28965633 -2.82126259  1.37580110
N   0.01727556 -2.50860687  0.67817612
O   0.36799275 -3.57255966  0.32328097
C   0.95834708 -1.66820523  1.51269805
C   0.41857599 -1.74063609  2.95957321
C   2.33820472 -2.29565280  1.43578547
C   0.86105269 -0.24176308  1.00079565
C  -0.40478911  0.26683492  0.60515432
C  -1.52812343 -0.57536856  0.40702486
C  -2.75095928 -0.02254981  0.12565606
C  -2.90493002  1.37457458 -0.01527713
C  -4.22850384  1.97706710 -0.31869971
O  -4.42029682  3.16832139 -0.45169920
O  -5.20401420  1.07484737 -0.43385114
C  -1.81400546  2.19938002  0.08569662
C  -0.54590025  1.66241908  0.38937426
C   0.59047262  2.49784871  0.47149001
C   1.81698882  1.96793372  0.77027422
C   2.99379825  2.87281635  0.80989407
O   2.94140399  4.07003361  0.61521738
O   4.13610861  2.23854229  1.07896004
C   1.94567141  0.58738477  1.05687554
H  -1.60892997 -3.68857344 -1.10923093
H  -1.03076359 -2.14526647 -1.79336110
H  -2.72520443 -2.33606543 -1.30556024
H  -2.08237134 -3.89192620  1.34778751
H  -3.32585510 -2.66333871  1.07615515
H  -2.15822618 -2.44374200  2.38748708
H   0.31344606 -2.77775703  3.28222327
H  -0.52535062 -1.21235251  3.08388908
H   1.16732120 -1.24946337  3.58262945
H   2.30954612 -3.32657039  1.78706918
H   3.00546344 -1.74783022  2.09929699
H   2.73715112 -2.26615436  0.42184417
H  -3.61434929 -0.65753127 -0.02561086
H  -6.03746953  1.52254384 -0.63591118
H  -1.91279778  3.26825094 -0.06632239
H   0.47802118  3.56014723  0.28641404
H   4.86554738  2.87420087  1.08810717
H   2.91602230  0.20760050  1.34273305
B   1.71682079 -0.66314115 -2.49680227
F   1.92377403 -1.11388369 -3.81734332
F   0.65976896  0.26580104 -2.47846142
F   1.38979623 -1.76992874 -1.67822588
F   2.89389544 -0.05767181 -2.01640852

