59
Total Energy                               R     -1.341811675259495E+03
C   0.76840922  1.11149995  0.38617768
C   1.37732069  2.24647811  1.20882402
C   1.36091102  1.12749514 -1.03515104
N   1.12335861 -0.17210212  1.05453096
O   2.28724074 -0.25546172  1.56447892
C   0.44719654 -1.47231715  0.79708448
C   1.27582860 -2.27467297 -0.21821339
C   0.40186805 -2.22064341  2.13863989
C  -0.97479690 -1.25609106  0.30508474
C  -1.53208464  0.04153049  0.15380238
C  -0.74376533  1.22080534  0.27897821
C  -1.34602385  2.44622360  0.16378775
C  -2.73357116  2.56809606 -0.09016571
C  -3.38390463  3.89720491 -0.20788546
O  -4.56344602  4.06240143 -0.44684876
O  -2.54314700  4.91774610 -0.02436414
C  -3.50150980  1.44738153 -0.25804877
C  -2.91741016  0.16596818 -0.14997759
C  -3.70075434 -0.98847874 -0.35553463
C  -3.12755704 -2.23072942 -0.26850773
C  -3.97601242 -3.42392693 -0.51321689
O  -5.16427302 -3.37850031 -0.76111310
O  -3.30604154 -4.57591692 -0.43746365
C  -1.76287614 -2.35619842  0.07301808
H   2.45435246  2.11569783  1.29562974
H   0.94436091  2.28891243  2.21075830
H   1.20809126  3.20186863  0.71324965
H   2.44079200  0.97151184 -0.99732192
H   1.16790125  2.10083486 -1.49165004
H   0.91128307  0.36037586 -1.66801107
H   2.28974042 -2.41521687  0.15886117
H   1.32189401 -1.77602281 -1.18728954
H   0.83234435 -3.26135088 -0.36163827
H   1.41000033 -2.36462167  2.52804220
H  -0.05174262 -3.20309606  2.00212256
H  -0.18723409 -1.66605963  2.87291634
H  -0.76099570  3.35174154  0.24065129
H  -3.02451468  5.75198689 -0.11529681
H  -4.55993755  1.52817266 -0.47884437
H  -4.75352437 -0.87873096 -0.59043592
H  -3.91325934 -5.31041629 -0.60307953
H  -1.34731089 -3.35037609  0.17453520
N   5.73182249 -0.06323270 -0.59678484
C   7.08047178 -0.61074386 -0.27544800
C   5.76805060  0.60438620 -1.92907097
C   4.74046082 -1.17672866 -0.62760743
C   5.33916533  0.93147649  0.44218627
H   6.49720393  1.41210891 -1.89462429
H   7.35763141 -1.33057583 -1.04345329
H   7.79452631  0.21070407 -0.25402637
H   7.03704533 -1.09720256  0.69740536
H   5.29731371  0.43224453  1.40822300
H   6.08442353  1.72540569  0.45969240
H   4.36440719  1.33974538  0.18508393
H   5.05797878 -1.90504301 -1.37199809
H   4.70293730 -1.63665205  0.35795459
H   3.76773987 -0.77042307 -0.89360771
H   6.05367087 -0.12898468 -2.68104262
H   4.77745025  1.00056413 -2.14707825

