59
Total Energy                               R     -1.341931737885259E+03
C  -1.39769291  2.26705004 -0.04831047
C  -2.39177206  2.30837482  1.12643307
C  -1.94014115  3.18024249 -1.17039365
N  -0.08457891  2.65503061  0.52085808
O  -0.13220350  4.00039037  0.95031006
C   1.12604646  2.42375426 -0.30417141
C   1.23677962  3.27158365 -1.59214388
C   2.32906357  2.75490857  0.59111086
C   1.15950053  0.95708140 -0.70802562
C  -0.06194630  0.24381365 -0.87530838
C  -1.31736036  0.84250835 -0.57983243
C  -2.46371094  0.11324078 -0.78275003
C  -2.42677690 -1.22371936 -1.24094477
C  -3.66881573 -2.01121114 -1.43351771
O  -3.69709563 -3.16504251 -1.81491279
O  -4.78256419 -1.33266942 -1.14386845
C  -1.22347386 -1.82839295 -1.49714939
C  -0.02379490 -1.10696369 -1.32618016
C   1.21767892 -1.73253149 -1.57400274
C   2.38223799 -1.03465614 -1.39600504
C   3.66814086 -1.72663455 -1.65524526
O   3.76474566 -2.88122051 -2.02293711
O   4.73969046 -0.95699872 -1.44385411
C   2.34306719  0.31563691 -0.97092088
H  -2.40736409  3.30659910  1.56348629
H  -2.10028322  1.59570573  1.90331399
H  -3.40906815  2.07413735  0.80864580
H  -1.86994083  4.22961611 -0.87699154
H  -2.99330772  2.95081127 -1.35499623
H  -1.40868731  3.04711109 -2.11247978
H   0.98682778  4.31524941 -1.38756953
H   0.58449767  2.90622737 -2.38611931
H   2.26174482  3.23638230 -1.97211753
H   2.29170415  3.80191305  0.89000269
H   3.27504915  2.60075894  0.06994357
H   2.32566111  2.13639662  1.49369873
H  -3.42864859  0.55876731 -0.58212176
H  -5.54954375 -1.90420082 -1.28756185
H  -1.18027292 -2.85903545 -1.83138417
H   1.23449018 -2.76589568 -1.90199752
H   5.54136373 -1.46502398 -1.63121481
H   3.28071025  0.84158269 -0.85981080
N   0.29585751 -1.41061934  3.35563669
C   0.23638683  0.02471181  3.75299357
C   0.18151114 -1.51586903  1.87304703
C   1.59469906 -1.99430691  3.79511355
C  -0.82820392 -2.15123224  3.99468398
H  -0.76702685 -1.07613226  1.56882045
H   1.05803904  0.55486565  3.27427694
H  -0.71612739  0.43891527  3.42758233
H   0.32612239  0.09058966  4.83613092
H  -0.73570103 -2.06165738  5.07572858
H  -1.76779083 -1.71514669  3.65966283
H  -0.77161806 -3.19693923  3.69730996
H   2.40305169 -1.44225385  3.31849840
H   1.66818082 -1.90942840  4.87794580
H   1.62674037 -3.04056293  3.49642124
H   1.01323580 -0.97358270  1.42721215
H   0.21989036 -2.56665758  1.59143857

