52
Total Energy                               R     -1.251996668318885E+03
C   0.46201865  0.80530689  1.50315934
C  -0.49991718  0.29093565  2.57174029
C   1.89486690  0.41684860  1.87096668
N   0.10996414  0.21331649  0.19081891
O   0.19849759 -1.03517162 -0.02021044
C   0.02103427  1.18149239 -0.92431784
C   1.39386153  1.30378055 -1.59722060
C  -1.01248515  0.72403596 -1.94320530
C  -0.31488605  2.49267091 -0.16875621
C  -1.80895229  2.76343763 -0.10906049
O  -2.55781167  2.21056627  0.70289992
N  -2.26825871  3.64733274 -1.00601273
C   0.32289589  2.31547975  1.22576928
H  -0.45109831 -0.79872407  2.64039876
H  -1.52758517  0.58784495  2.36279005
H  -0.21294088  0.70451738  3.54185581
H   1.97892416 -0.66206099  2.01929152
H   2.17371090  0.91275347  2.80442172
H   2.60176516  0.72032403  1.09712172
H   1.72949525  0.32565916 -1.94862053
H   2.14485230  1.70677533 -0.91542301
H   1.31785728  1.97368989 -2.45710144
H  -0.69430092 -0.21067132 -2.40875686
H  -1.10728690  1.47624842 -2.72928802
H  -1.99498297  0.56823302 -1.49331557
H   0.15831307  3.32284396 -0.69407913
H  -1.66160939  4.06516109 -1.69267486
H  -3.25809653  3.83384132 -1.06306471
H  -0.26601975  2.80552703  2.00137450
H   1.30952987  2.78080357  1.22128519
N  -3.78860983 -2.08923828 -0.11626088
C  -3.04933122 -1.33513652  0.93577652
C  -2.81542481 -2.67352841 -1.08279214
C  -4.57833907 -3.18209225  0.51721663
C  -4.70653528 -1.16161113 -0.83588898
H  -2.25954396 -1.86449241 -1.55160252
H  -2.38135966 -2.02171349  1.45224780
H  -2.48033962 -0.54383474  0.45664978
H  -3.76987174 -0.91130899  1.63328315
H  -5.41269058 -0.74454395 -0.11996223
H  -4.11580310 -0.36627473 -1.28713925
H  -5.23650198 -1.72015378 -1.60553849
H  -3.89388611 -3.85332832  1.03299613
H  -5.27821165 -2.74191693  1.22528755
H  -5.11801613 -3.72049694 -0.25997109
H  -2.13761272 -3.33182868 -0.54242296
H  -3.36609135 -3.23639521 -1.83465527
B   4.67744864 -1.08500595 -0.28268568
F   3.42562653 -1.66249137 -0.57525791
F   4.92412410 -1.16779600  1.10399712
F   5.68905619 -1.78036658 -0.98032173
F   4.68032256  0.26796481 -0.68104140

