52
Total Energy                               R     -1.252106346405711E+03
C   0.27044862 -0.82731210  1.05136176
C  -0.56369630 -2.09577367  0.83525347
C   1.42054781 -1.15858567  2.00538286
N   0.85277730 -0.24169433 -0.18640340
O   1.16220488 -1.18122575 -1.18410645
C   0.00256018  0.87122414 -0.65782095
C   0.83259095  1.78521081 -1.55570906
C  -1.26885342  0.44640853 -1.40703479
C  -0.32385630  1.52105239  0.71168195
C  -1.44379856  2.53780661  0.66303368
O  -2.62452468  2.25654058  0.90074709
N  -1.07537842  3.78704089  0.33410504
C  -0.60725049  0.31636718  1.60797749
H   0.06121543 -2.93942180  0.53117907
H  -1.33793813 -1.95811642  0.07855985
H  -1.05824514 -2.36854082  1.77333377
H   2.12005911 -1.85904958  1.53749592
H   1.05073979 -1.61938883  2.92803667
H   1.97323575 -0.25310526  2.27387969
H   1.18349857  1.23370119 -2.43259112
H   1.70681037  2.17170683 -1.02359488
H   0.24453648  2.63455118 -1.91466254
H  -1.01003155 -0.20346162 -2.24625562
H  -1.79024885  1.31924176 -1.81176209
H  -1.97041603 -0.08919834 -0.76816480
H   0.58303092  2.03258013  1.04766512
H  -0.11722612  4.00915383  0.11689779
H  -1.77404391  4.50619788  0.22569545
H  -1.66312549  0.04805879  1.54279909
H  -0.39091797  0.53212970  2.65741093
N   5.08563465 -0.40155839 -0.20778888
C   4.70411088 -1.78581094 -0.60638804
C   5.21898544 -0.33360929  1.27479365
C   6.38535947 -0.04267056 -0.84069068
C   4.02879801  0.55334447 -0.65354646
H   4.26239404 -0.59369843  1.72366412
H   5.49133060 -2.46896485 -0.29111973
H   3.76387209 -2.04267307 -0.12233358
H   4.58785714 -1.81860010 -1.68809863
H   3.96560848  0.51525146 -1.74005258
H   3.07000325  0.26551068 -0.21599188
H   4.31409457  1.55426934 -0.33164220
H   7.14934245 -0.73699325 -0.49447988
H   6.27728269 -0.11168771 -1.92177975
H   6.64464667  0.97514999 -0.55396314
H   5.98670487 -1.03837681  1.58982034
H   5.50199966  0.67982990  1.55446469
B  -4.70752384 -1.06493916 -0.33910673
F  -6.01724644 -1.56932816 -0.17944315
F  -4.05501614 -1.05730474  0.91037625
F  -3.99746077 -1.88668669 -1.23911303
F  -4.77103269  0.24817434 -0.84861561

