30
Total Energy                               R     -5.589243990627093E+02
C  -0.00770671  0.37429627  1.31656818
C   1.45734085  0.59678746  1.71794532
C  -0.92046129  1.02951690  2.35294596
N  -0.26689124  1.02862131  0.00000000
O  -0.30522995  2.30171884  0.00000000
C  -0.00770671  0.37429627 -1.31656818
C  -0.92046129  1.02951690 -2.35294596
C   1.45734085  0.59678746 -1.71794532
C  -0.34235876 -1.12057060 -1.23569225
C   0.21373866 -1.80831931 -0.00000000
O  -0.09031137 -3.19935536 -0.00000000
C  -0.34235876 -1.12057060  1.23569225
H  -0.65165527  2.07303327  2.52079644
H   1.70545193  1.65982947  1.66822118
H   1.60768246  0.25862738  2.74694366
H  -1.96601413  0.98550629  2.03594203
H  -0.82668866  0.49292074  3.30092735
H  -1.43333802 -1.24295890  1.23233924
H  -1.96601413  0.98550629 -2.03594203
H  -1.43333802 -1.24295890 -1.23233924
H  -0.82668866  0.49292074 -3.30092735
H  -0.65165527  2.07303327 -2.52079644
H   1.60768246  0.25862738 -2.74694366
H   1.70545193  1.65982947 -1.66822118
H   2.15428448  0.04993669 -1.08088243
H   0.03608953 -1.60511641 -2.14014820
H  -1.04849277 -3.30267847 -0.00000000
H   1.30523626 -1.77058013 -0.00000000
H   2.15428448  0.04993669  1.08088243
H   0.03608953 -1.60511641  2.14014820

