31
Total Energy                               R     -5.388704536644589E+02
C  -1.26990625 -1.05611948 -0.34759279
C   0.35492113 -1.73007614  1.51270433
C   0.73098509 -2.50795745 -0.83950393
N  -3.17833462  0.53633676 -0.21172387
O   2.15127576 -0.31477626 -0.58602312
C  -0.90966108  1.39315098 -0.34755296
C   1.42909220  2.19559028 -0.82857659
C  -1.79412400  0.27642741  0.18135291
C   0.83008594  1.55211409  1.51756235
C   0.57090212  1.27370709  0.02548460
N   1.04183424 -0.15224449 -0.22425973
C   0.18084452 -1.38108938  0.02300511
H  -3.76396142 -0.21242237  0.14454543
H  -0.09367241 -2.71586824  1.64726917
H  -1.87544369 -1.88293261  0.03278586
H  -1.36279149 -1.05905470 -1.43938326
H   0.04330709 -3.34970093 -0.74299889
H   0.77474489 -2.21853945 -1.89133819
H  -3.24657436  0.48480954 -1.22487527
H  -0.99484716  1.42566130 -1.43958158
H   1.01923831  3.20151840 -0.72518069
H  -1.24388719  2.36046569  0.03385883
H   0.69350942  2.62625975  1.65406740
H  -1.77192747  0.27410865  1.27329846
H   0.13663706  1.03608371  2.17766785
H   2.46717974  2.21342649 -0.49691493
H   1.38831868  1.91367942 -1.88258047
H   1.41184016 -1.79124508  1.77793075
H   1.85500294  1.29604844  1.79100071
H  -0.14834894 -1.03432690  2.17995301
H   1.71813426 -2.83289130 -0.51075234

