42
Total Energy                               R     -1.127548632731410E+03
C   1.13012791 -1.63195811  0.08389146
C   0.92645880 -2.97646993  0.28879276
C  -1.45865943 -2.70561352  0.26946641
N   2.58831370  0.28995951 -0.41857140
O  -0.84421078  3.56725372  1.12375294
C   2.55510785 -1.16605047 -0.14854273
C   1.90329663  1.50190998  1.61654822
C   3.45971215 -1.47376335  1.05681324
C   1.59341491  1.26049723  0.12669710
C   0.18828089  0.67287956  0.00118268
C   0.01254306 -0.74991965  0.03285148
C  -1.30048615 -1.31463645  0.06730297
C  -0.36398503 -3.51279940  0.40570584
O  -4.71765236 -0.16925270  0.40352594
O  -4.12666732 -1.95848008 -0.79525588
C  -2.42459445 -0.44285060 -0.04447173
C   3.10992687 -1.85939648 -1.40365763
C  -3.81400817 -0.95694946 -0.18603345
O  -1.29670654  3.54936847 -1.06757195
O   3.73076705  0.75315755 -0.73620087
C  -2.23237949  0.90760274 -0.08577025
C  -0.93787043  1.46801317 -0.02905714
C   1.77962140  2.55598579 -0.66632326
C  -0.97927591  2.96225024  0.08381486
H   3.56560651 -2.55329578  1.17584240
H   4.12927583 -1.52809233 -1.60251153
H   3.12915142 -2.93936887 -1.25583816
H   1.77200641 -3.65156241  0.34887784
H  -2.45120290 -3.12932554  0.33423889
H  -3.08408467  1.57330034 -0.15935694
H   1.69608128  0.61550204  2.21784900
H  -1.39084618  4.50487757 -0.93587170
H   1.28372009  2.31796667  1.99084029
H   3.05505939 -1.06656293  1.98371510
H   2.95424154  1.77639825  1.73420139
H   4.45311861 -1.05404377  0.88858909
H  -0.48813307 -4.57523955  0.58390507
H  -5.60607421 -0.51016796  0.22591328
H   2.48831187 -1.63994319 -2.27497303
H   1.44049743  2.44771437 -1.69829223
H   1.25563614  3.38385017 -0.19717959
H   2.83180990  2.82951294 -0.67121576

