42
Total Energy                               R     -1.127356862731850E+03
C  -1.36466243 -1.26030528 -0.09414189
C  -2.42044269 -0.30728438  0.00165888
C  -3.85224199 -0.70198305 -0.12001090
N   2.64740218 -0.01088257 -0.35950604
O  -4.26963808 -1.55598602 -0.87217848
C  -1.58739297 -2.65882141 -0.16914710
C  -0.53591071 -3.53211259 -0.17761651
C   0.78571306 -3.06649327 -0.04230505
C   1.03495414 -1.72355153  0.05891616
C  -0.02676840 -0.78328411 -0.04402405
C   0.24715253  0.61651816 -0.06644468
C  -0.80167294  1.49221293  0.09868865
C  -2.12926255  1.01909513  0.16852344
O  -0.71361512  3.43662359  1.39998046
O  -4.65063492  0.01641749  0.66979268
C  -0.68730754  2.98886717  0.14961540
C   1.61813627  1.51335440 -1.94991068
C   2.22268982  2.24252262  0.40401034
O   3.65719272  0.10033047 -0.95153064
O  -0.64441414  3.70625538 -0.82205502
C   1.63267886  1.11354610 -0.46579319
C   2.37250153 -0.73997993  1.95295703
C   3.55224566 -2.19235042  0.27482371
C   2.40650439 -1.22384377  0.48829030
H   0.88909169  2.31032095 -2.08077200
H   1.33031301  0.66561816 -2.57422774
H   1.75682601  3.18422005  0.12003637
H  -5.57226217 -0.23183517  0.50855734
H  -2.93103640  1.73865707  0.28357962
H  -2.59851671 -3.03931486 -0.20773436
H  -0.71744932 -4.59881813 -0.24085015
H   2.26091688 -1.63573747  2.56529211
H   1.58826169 -3.78880528  0.02957141
H   3.28787698  2.34473820  0.19478756
H   3.59892260 -2.54966617 -0.75493603
H   2.59615273  1.88368136 -2.25526485
H  -0.68526351  4.40549520  1.40466995
H   1.53453264 -0.07775776  2.16577695
H   2.07130902  2.06757097  1.46751227
H   3.30995549 -0.24552435  2.21275034
H   4.49977444 -1.72020977  0.53483901
H   3.41617175 -3.04222283  0.94234335

