30
Total Energy                               R     -6.075879366378996E+02
C  -2.04135435  1.36524162 -0.00748552
C  -2.14056378  2.13567868  1.31056011
C  -2.03198440  2.31537936 -1.20181574
N  -3.17477403  0.41357625 -0.12081116
O  -4.37999149  0.80599189 -0.11251786
C  -2.81771246 -1.02289098 -0.00732357
C  -3.35231522 -1.58674271  1.31079091
C  -3.36924530 -1.79641217 -1.20199283
C  -1.31442314 -0.92245469 -0.01265403
C  -0.88573738  0.39780478 -0.01323323
C   0.46494250  0.71419743 -0.00938505
C   1.37609004 -0.33650747 -0.00455739
I   3.44003317  0.09606405  0.00030897
C   0.96319777 -1.66722070 -0.00369074
C  -0.39674159 -1.96196048 -0.00769300
H  -3.04506808  2.74836916  1.32354277
H  -1.27603454  2.79566224  1.41389598
H  -2.16218131  1.45303625  2.16326988
H  -2.94111761  2.92115977 -1.21165451
H  -1.96230250  1.76449729 -2.14254724
H  -1.17447296  2.98823667 -1.12788677
H  -4.44432967 -1.55322395  1.32250763
H  -2.97102290 -1.01926267  2.16295053
H  -3.03859507 -2.62791000  1.41674231
H  -4.46083004 -1.75188110 -1.21244491
H  -3.07110038 -2.84481089 -1.12777823
H  -2.98841948 -1.39193319 -2.14256686
H   0.78942363  1.74878771 -0.01006881
H   1.68710047 -2.47343948 -0.00052502
H  -0.72437337 -2.99632738 -0.00711055

