29
Total Energy                               R     -3.057282574156176E+03
C   1.20833600 -1.31681738 -0.00508254
C   1.81770843 -2.36335249 -0.93682114
C   1.48893554 -1.70871892  1.45170528
N   1.84829601  0.00000009 -0.29881423
O   3.12102308  0.00000136 -0.39747282
C   1.20833630  1.31681700 -0.00508229
C   1.48893558  1.70871694  1.45170591
C   1.81771069  2.36335163 -0.93682030
C  -0.30116746  1.24035287 -0.28797949
C  -0.93135829  0.00000020  0.30829559
Br  -2.87691944  0.00000050 -0.05703226
C  -0.30116786 -1.24035299 -0.28797890
H   2.86709611 -2.54741453 -0.70367355
H   1.73755458 -2.05553429 -1.98219983
H   1.27323659 -3.30268194 -0.81404136
H   2.56083648 -1.66074699  1.65685860
H   1.15565816 -2.73660504  1.61518712
H   0.97110790 -1.07008261  2.16820877
H   2.56083485  1.66072824  1.65686415
H   0.97109454  1.07009024  2.16820827
H   1.15567393  2.73660875  1.61518396
H   2.86710435  2.54739664 -0.70368576
H   1.27325395  3.30268771 -0.81402479
H   1.73753784  2.05554362 -1.98220053
H  -0.46163671  1.23466601 -1.37074136
H  -0.75828561  2.14827883  0.11069717
H  -0.88283302  0.00000050  1.39535981
H  -0.46163774 -1.23466694 -1.37074068
H  -0.75828625 -2.14827853  0.11069854

