30
Total Energy                               R     -6.073955848346345E+02
C  -2.02125194  1.37092323  0.00948218
C  -2.18446599  2.08599687  1.35694950
C  -2.05709621  2.34041849 -1.16632388
N  -3.18503020  0.41600369 -0.11005062
O  -4.29107622  0.77567790 -0.25233238
C  -2.80457799 -1.04153414 -0.00058107
C  -3.37226203 -1.53747054  1.33558183
C  -3.39248099 -1.79053866 -1.19189513
C  -1.30662005 -0.92412385 -0.00580257
C  -0.87926565  0.39440220 -0.00601040
C   0.46871764  0.71581669 -0.00629995
C   1.37940014 -0.33464934 -0.00450640
I   3.43977592  0.09696265 -0.00576302
C   0.96533621 -1.66554685 -0.00291870
C  -0.39220748 -1.96499277 -0.00412808
H  -3.09228823  2.69118881  1.35615220
H  -1.31875501  2.73877595  1.47952828
H  -2.21080942  1.37402785  2.18327492
H  -2.96241979  2.94792842 -1.13570218
H  -1.99646971  1.80956399 -2.11740784
H  -1.19107027  2.99760019 -1.07325232
H  -4.46232168 -1.49228720  1.32255376
H  -2.98469191 -0.95385909  2.17179394
H  -3.05750553 -2.57570602  1.45209502
H  -4.48231027 -1.75162023 -1.16998671
H  -3.07705622 -2.83175455 -1.10827540
H  -3.02349789 -1.38446457 -2.13471642
H   0.78802049  1.75150312 -0.00705544
H   1.68908344 -2.47156601 -0.00199534
H  -0.72156415 -2.99800832 -0.00383707

