30
Total Energy                               R     -6.076997448235040E+02
C  -2.06910461  1.33179924  0.05888429
C  -1.93450711  2.45553187  1.08642430
C  -2.23459517  1.96151275 -1.33446452
N  -3.15418759  0.40196683  0.48051045
O  -4.43857363  0.82435186  0.09202992
C  -2.82102433 -0.98424238  0.04518100
C  -3.36935420 -1.98330310  1.06445543
C  -3.33077595 -1.38452952 -1.34979672
C  -1.31443619 -0.92449450  0.05051035
C  -0.88594965  0.39672499  0.06193743
C   0.46485392  0.71337145  0.04547303
C   1.37749973 -0.33793222  0.01488188
I   3.44414406  0.09835909 -0.01122629
C   0.96737203 -1.66823365  0.00246312
C  -0.39521448 -1.96244913  0.02111345
H  -2.86478763  3.02952180  1.13664230
H  -1.13082235  3.14697808  0.81498235
H  -1.72300285  2.05432114  2.08110838
H  -3.11519277  2.60711699 -1.36602855
H  -2.32908650  1.21441682 -2.12365444
H  -1.35898610  2.57710752 -1.56178953
H  -4.46018438 -1.91113446  1.11234707
H  -2.96695770 -1.78705668  2.06178896
H  -3.11568354 -3.01098112  0.78651600
H  -4.42290226 -1.37349461 -1.37778955
H  -2.99777483 -2.40051927 -1.58221368
H  -2.96138257 -0.72569227 -2.13687398
H   0.79299381  1.74718230  0.05541002
H   1.69261288 -2.47329787 -0.01989517
H  -0.71916028 -2.99861763  0.01225282

