29
Total Energy                               R     -3.057394264040927E+03
C   1.22253886 -1.26694414 -0.03098241
C   1.78043696 -2.41107259 -0.88709651
C   1.51757382 -1.60690704  1.44315994
N   1.81075388 -0.00000004 -0.53533025
O   3.21556393 -0.00000000 -0.34269298
C   1.22253880  1.26694433 -0.03098227
C   1.51757407  1.60690700  1.44316001
C   1.78043710  2.41107232 -0.88709668
C  -0.30044279  1.24177213 -0.27335482
C  -0.93276112  0.00000006  0.31180564
Br  -2.89087076  0.00000002 -0.04848277
C  -0.30044276 -1.24177196 -0.27335490
H   2.83712631 -2.59107061 -0.67959020
H   1.67250854 -2.18797095 -1.95255724
H   1.23740179 -3.33786434 -0.67693236
H   2.57483062 -1.44953138  1.66695733
H   1.29151086 -2.66092344  1.63194884
H   0.93152488 -1.02069328  2.15140694
H   2.57483041  1.44952874  1.66695753
H   0.93152334  1.02069491  2.15140694
H   1.29151367  2.66092399  1.63194874
H   2.83712635  2.59107063 -0.67959010
H   1.23740185  3.33786426 -0.67693301
H   1.67250898  2.18797025 -1.95255734
H  -0.48955753  1.26326959 -1.35195142
H  -0.73948092  2.14531061  0.15827608
H  -0.89576043 -0.00000000  1.39908927
H  -0.48955761 -1.26326939 -1.35195150
H  -0.73948082 -2.14531046  0.15827598

