32
Total Energy                               R     -8.216638066038954E+02
C   0.65956618 -0.51017170  0.27709916
C   2.37544568  0.95351932 -0.99505454
C   1.51858145 -1.63058221 -0.23874812
N   0.09318454  1.66729878 -0.51365872
O   2.53856589 -1.90044082  0.58356155
C   1.25402622  0.92020046  0.04622837
C  -1.64865789  1.24305188  1.30893145
C   1.80435425  1.46832022  1.36670350
C  -1.16929847  0.99747696 -0.13106285
C  -2.27060520  1.42380761 -1.09538771
O  -2.73061180 -1.71070518 -0.54855780
O   0.12061473  3.03866222 -0.20708653
C  -0.72931085 -0.47218067 -0.34957741
C  -1.66672063 -1.49335082  0.23149792
O   1.34548410 -2.24143477 -1.27282485
O  -1.51415083 -2.07414910  1.28664675
H   2.62277974  1.99453127 -1.22096136
H  -1.98746396  1.21450031 -2.13061847
H   2.07012644  0.47124956 -1.92770841
H   3.28668724  0.46851420 -0.63155323
H  -0.67254563 -0.64727909 -1.42592384
H   3.08711972 -2.60090256  0.20291505
H   2.56082517  0.78076809  1.75705291
H   0.56726664 -0.66581023  1.35324416
H   1.02700440  1.58034555  2.12458651
H   2.27938050  2.44015704  1.22057853
H  -1.74288371  2.31551272  1.49167455
H  -2.45244166  2.49780642 -0.99927507
H  -0.97727028  0.83020740  2.06362559
H  -2.63482070  0.79461589  1.46353248
H  -3.20955331  0.90735535 -0.88219045
H  -3.32000352 -2.34866850 -0.12105953

