59
Total Energy                               R     -1.341804811024571E+03
C   0.83047931  0.88155320  0.32953767
C   1.38074274  2.10977624  1.05046104
C   1.33735189  0.86738497 -1.12550907
N   1.32640288 -0.32816655  1.03839814
O   2.48928597 -0.27704953  1.55407173
C   0.78635106 -1.69221185  0.80506950
C   1.70048068 -2.42896787 -0.18700889
C   0.80347862 -2.41476458  2.16199911
C  -0.64924362 -1.63294534  0.30618643
C  -1.35769468 -0.40815119  0.16705340
C  -0.68955790  0.84516891  0.30787073
C  -1.41321510  2.00559369  0.28488268
C  -2.81418874  1.98041986  0.10273945
C  -3.61815325  3.22921454  0.11535601
O  -4.81837282  3.27230208 -0.06688006
O  -2.89364762  4.32508516  0.35150371
C  -3.46576238  0.79673225 -0.11460292
C  -2.75596139 -0.42753615 -0.11763370
C  -3.39704864 -1.68211139 -0.34205410
C  -4.83504933 -1.83577102 -0.70001934
O  -5.53834720 -2.72836291 -0.27327591
O  -5.27670327 -0.93718578 -1.58032601
C  -2.67301266 -2.84360462 -0.24321113
C  -1.31059481 -2.81738021  0.08370413
H   2.46765622  2.07386944  1.08559047
H   0.99807906  2.17990018  2.07112822
H   1.10625663  3.01515349  0.50978079
H   2.42634705  0.78934926 -1.14834699
H   1.04577965  1.79991213 -1.61373101
H   0.91154436  0.04011044 -1.69580986
H   2.71998519 -2.45279377  0.20046855
H   1.70402402 -1.95178775 -1.16768573
H   1.36587311 -3.46016788 -0.30887881
H   1.81768544 -2.44637549  2.56072370
H   0.45403174 -3.44067713  2.04227378
H   0.15429552 -1.90825014  2.88009916
H  -0.92363450  2.96308337  0.38798979
H  -3.47445721  5.09887973  0.34586706
H  -4.53436936  0.80445898 -0.27506857
H  -6.21339418 -1.09784491 -1.76559558
H  -3.15692891 -3.79795915 -0.41578681
H  -0.79348217 -3.76425437  0.18248548
N   5.90253352  0.26538805 -0.65841205
C   5.07237130 -0.96560164 -0.52529636
C   5.30581483  1.36206819  0.15664348
C   7.28522764 -0.01445533 -0.17676010
C   5.94405324  0.68015058 -2.08966694
H   4.31355617  1.58173007 -0.23009590
H   5.04520265 -1.25751911  0.52257163
H   4.06871875 -0.74853508 -0.88307153
H   5.52204527 -1.75515151 -1.12527388
H   6.38939974 -0.12333962 -2.67369381
H   4.92626829  0.87025720 -2.42678768
H   6.54349646  1.58459413 -2.17550450
H   7.23639136 -0.30574892  0.87099769
H   7.70617605 -0.82250007 -0.77247259
H   7.88461688  0.88729947 -0.28892681
H   5.24492809  1.03659488  1.19329606
H   5.94242089  2.24148201  0.07436069

