59
Total Energy                               R     -1.341928398612066E+03
C  -2.15784871  1.67431842  0.26222818
C  -2.43075732  2.60605358 -0.92760918
C  -2.56394479  2.41337064  1.55846582
N  -2.88920253  0.41684939 -0.01875884
O  -4.27233268  0.66958263 -0.15683370
C  -2.68317942 -0.71682747  0.91135476
C  -3.39806716 -0.60580216  2.27733923
C  -3.23193313 -1.95450897  0.17633634
C  -1.19701252 -0.91999168  1.16410113
C  -0.24414921  0.08914614  0.85097216
C  -0.67074434  1.35600092  0.35220436
C   0.27062428  2.29029243  0.00902314
C   1.65047528  2.00845955  0.10941754
C   2.67362017  2.99290212 -0.32365764
O   3.87368039  2.80713662 -0.26911784
O   2.15185775  4.12938986 -0.79392659
C   2.08124748  0.80655066  0.60456360
C   1.14976583 -0.16952456  1.02737986
C   1.55702425 -1.42701199  1.56617785
C   2.97152996 -1.81485866  1.81134480
O   3.40390682 -2.93273534  1.61085471
O   3.72930998 -0.84350160  2.32376291
C   0.60942546 -2.36582813  1.88951691
C  -0.75416835 -2.10816110  1.69805179
H  -3.49866115  2.80555753 -1.00520101
H  -2.09345584  2.15170724 -1.86416518
H  -1.93228391  3.56931126 -0.81107913
H  -3.65250736  2.45540871  1.64735102
H  -2.18396024  3.43865667  1.53698521
H  -2.15874472  1.93559013  2.45138771
H  -4.44248855 -0.32321115  2.13638458
H  -2.92852405  0.12203458  2.93859955
H  -3.37524417 -1.57329842  2.78595567
H  -4.27821966 -1.79042000 -0.08182537
H  -3.17861505 -2.85571979  0.78908731
H  -2.67233385 -2.12992459 -0.74712494
H  -0.02966430  3.26091094 -0.35750698
H   2.86597711  4.72615435 -1.05783774
H   3.14157634  0.60991723  0.66989413
H   4.63115015 -1.17244900  2.44796270
H   0.91528238 -3.31998153  2.30358155
H  -1.45943829 -2.88366027  1.97003099
N   0.31911550 -1.57030342 -2.96497875
C   0.72741467 -2.31492816 -1.74016960
C   1.45462312 -1.53910100 -3.92842475
C  -0.85021381 -2.24849543 -3.59126692
C  -0.06057604 -0.17698080 -2.59407948
H   2.29452440 -1.02801389 -3.46088399
H   0.98224020 -3.33561359 -2.02073585
H   1.59201694 -1.81950500 -1.30329470
H  -0.10548761 -2.31443839 -1.03971564
H  -0.90903002 -0.21782230 -1.91352157
H   0.79129445  0.29784705 -2.10993750
H  -0.32952211  0.36327405 -3.50046388
H  -0.56299196 -3.26257439 -3.86411992
H  -1.66743248 -2.26925357 -2.87174378
H  -1.14476924 -1.68914440 -4.47761356
H   1.72932082 -2.56237971 -4.17890421
H   1.14028862 -1.00420493 -4.82291778

