47
Total Energy                               R     -1.552022282062050E+03
C  -2.36782756 -1.28881944  0.30910734
C  -2.20439403 -1.60690296  1.80254561
C  -3.23392293 -2.36157586 -0.37911759
N  -3.18080110 -0.01587792  0.24078203
O  -4.10088987  0.08954992  0.96625491
C  -2.88810798  1.08540451 -0.74465241
C  -3.28563585  0.53099629 -2.13097231
C  -3.74852067  2.28117096 -0.38675108
C  -1.38749018  1.32299670 -0.69375918
C  -0.51525478  0.20160013 -0.65763225
C  -1.00657293 -1.09015768 -0.33389335
C  -0.18151879 -2.17863976 -0.42480495
C   1.17454195 -2.01806905 -0.77431127
C   2.09038960 -3.18589256 -0.85724504
O   3.27783607 -3.10704673 -1.09606926
O   1.47698602 -4.35091224 -0.64356657
C   1.69565349 -0.76782267 -0.98669065
C   0.86721483  0.37522755 -0.94161424
C   1.35904232  1.70572306 -1.11586748
C   2.78745465  2.03490872 -1.39307237
O   3.35962294  2.98012723 -0.89377348
O   3.36828107  1.22789877 -2.27908408
C   0.50706180  2.77289997 -1.01043378
C  -0.87595322  2.58353641 -0.83358062
H  -3.17300843 -1.77382449  2.27239676
H  -1.67622180 -0.80132643  2.31475082
H  -1.61635306 -2.51977943  1.88694667
H  -4.22033429 -2.39347985  0.08470779
H  -2.75089301 -3.32593621 -0.22188049
H  -3.33274095 -2.18783222 -1.44940552
H  -4.33007273  0.21561570 -2.13098268
H  -2.64886203 -0.29009054 -2.45637743
H  -3.16345505  1.35703322 -2.83278212
H  -4.80388606  2.01126422 -0.40898304
H  -3.59456557  3.05498791 -1.13702936
H  -3.49791973  2.68167261  0.59688560
H  -0.54753806 -3.16585810 -0.17446081
H   2.11917687 -5.07135116 -0.71062839
H   2.75184396 -0.66443956 -1.18811624
H   4.28945256  1.49689348 -2.40798606
H   0.88893342  3.78120061 -1.11699932
H  -1.51823266  3.45400907 -0.84599400
B   1.49482739  0.66207793  2.65769001
F   0.39856561  1.47297087  2.29992143
F   1.16252735 -0.69487055  2.46892365
F   2.61125159  0.99157004  1.86223416
F   1.81037759  0.87983581  4.01763132

