31
Total Energy                               R     -5.390575917995535E+02
C  -0.24619012  1.34710229 -0.01131175
C  -0.42017566  1.77577047  1.45277014
C  -0.78151131 -1.65020475  1.45816506
N  -1.03440323  0.10498874 -0.26181322
O  -2.30128159  0.23549223 -0.29316299
C  -0.51704466 -1.27162615 -0.00609389
C  -1.27639667 -2.23304195 -0.92068320
C  -0.79543835  2.44132107 -0.92667054
C   1.22955066  1.10619347 -0.35023453
C   1.80001975 -0.19341236  0.21160012
N   3.21212144 -0.40005778 -0.12092863
C   0.97780294 -1.34777690 -0.33879939
H  -1.48139431  1.83281188  1.70743590
H   0.01903216  2.76701747  1.59613611
H   0.06551373  1.09102670  2.14995512
H  -1.83242968 -1.48532669  1.70828437
H  -0.16721123 -1.07773969  2.15517417
H  -0.55721546 -2.71022141  1.60640717
H  -2.33234749 -2.29140161 -0.65412560
H  -0.84197542 -3.23218639 -0.82806671
H  -1.19797757 -1.92120004 -1.96588780
H  -1.81611897  2.71580179 -0.65721718
H  -0.78646419  2.11728216 -1.97103304
H  -0.16494208  3.33035952 -0.83882477
H   1.34853616  1.08329617 -1.44123109
H   1.10045604 -1.36412880 -1.42967120
H   1.35978850 -2.30031384  0.04012797
H   3.76200114  0.37133477  0.24493778
H   3.32761826 -0.37080883 -1.13083284
H   1.80376316  1.96337604  0.01650228
H   1.73389305 -0.18338499  1.30397417

