31
Total Energy                               R     -5.391420956998061E+02
C  -0.31214402  1.28122696 -0.03968580
C   1.19558254  1.16103637 -0.31234565
C  -0.84411079  2.44950123 -0.87889989
N   3.25001938 -0.25908730 -0.08400748
O  -2.37910835  0.13692234 -0.26994394
C   1.05098225 -1.30629363 -0.30319986
C  -1.12669753 -2.33864695 -0.87091071
C   1.82360912 -0.11522923  0.23958979
C  -0.76275130 -1.54375636  1.44618033
C  -0.46061796 -1.23911573 -0.03498207
N  -0.99946187  0.05651248 -0.52302894
C  -0.56991662  1.62367557  1.44130601
H   3.75865746  0.54573670  0.27051849
H  -0.34636424  2.67819656  1.63827204
H   1.70733226  2.04004011  0.10024680
H   1.36402846  1.17550197 -1.39859449
H  -0.27918405  3.36506717 -0.66922334
H  -0.75146712  2.22755894 -1.94750169
H   3.36466021 -0.23423137 -1.09431257
H   1.21677906 -1.35184804 -1.38926719
H  -1.00972821 -2.13308751 -1.94038881
H   1.45034463 -2.23666278  0.11786839
H  -0.68621906 -2.61893452  1.64304499
H   1.75717573 -0.10862163  1.33245952
H  -0.08545746 -1.04037357  2.13844748
H  -0.67441678 -3.31409767 -0.65849559
H  -2.19426892 -2.39455346 -0.65182273
H  -1.62581477  1.44672911  1.66047103
H  -1.78453323 -1.22298409  1.66368920
H   0.03187462  1.03167093  2.13306258
H  -1.89804852  2.63314875 -0.66198050

