28
Total Energy                               R     -5.578106579688468E+02
C  -0.30584754  0.05712517  1.26349308
C  -0.25346254 -1.45183778 -1.56995875
C  -0.25346254 -1.45183778  1.56995875
N  -0.99555715  0.42072404  0.00000000
O   2.95956374 -0.26917403 -0.00000000
C   1.86835631  0.27101501 -0.00000000
C   1.12726043  0.63445937  1.25317401
C   1.12726043  0.63445937 -1.25317401
C  -1.06527155  0.74166023 -2.40414405
C  -1.06527155  0.74166023  2.40414405
O  -2.30135121 -0.09434813  0.00000000
C  -0.30584754  0.05712517 -1.26349308
H   0.53957608 -1.97255329  1.02916087
H  -0.08036236 -1.62206472 -2.63797643
H   0.53957608 -1.97255329 -1.02916087
H  -0.08036236 -1.62206472  2.63797643
H  -1.21336155 -1.89667980  1.29791915
H  -2.04947188  0.28935352  2.53421081
H   1.68294725  0.29647590  2.13148574
H  -0.51142808  0.64994473  3.34491794
H  -1.20362197  1.80605334  2.18775736
H   1.06618063  1.72953788  1.28529777
H   1.06618063  1.72953788 -1.28529777
H   1.68294725  0.29647590 -2.13148574
H  -0.51142808  0.64994473 -3.34491794
H  -1.20362197  1.80605334 -2.18775736
H  -2.04947188  0.28935352 -2.53421081
H  -1.21336155 -1.89667980 -1.29791915

