28
Total Energy                               R     -5.575307640873247E+02
C  -1.32574720 -0.29064828  0.01493027
C   1.65776435 -0.24445196  1.52701831
C  -1.60279979 -0.18801714  1.52655539
N   0.01650327 -1.00018098 -0.13042303
O   0.02312512  3.00997895  0.03601811
C   0.02535473  1.85825946 -0.32757637
C  -1.23652747  1.09409224 -0.64209013
C   1.29311164  1.09206348 -0.61280952
C   2.40912044 -1.16551898 -0.68504327
C  -2.38300887 -1.14985436 -0.66030303
O   0.01004068 -2.16363561 -0.31450385
C   1.36685408 -0.30723086  0.01567930
H  -0.98772744  0.56182136  2.02027783
H   2.70475190  0.04945067  1.61982568
H   1.05151990  0.49551997  2.04536747
H  -2.64697597  0.11514046  1.62109605
H  -1.47723898 -1.15300386  2.02062046
H  -2.55214173 -2.08557932 -0.12707250
H  -2.11414135  1.66248809 -0.33364360
H  -3.31271207 -0.57865050 -0.64862438
H  -2.12381228 -1.36163378 -1.69967175
H   2.16281176  1.65413337 -0.27228893
H  -1.27073732  0.97450591 -1.73099260
H   1.35618757  0.99357198 -1.70271761
H   3.34423114 -0.60317514 -0.67322309
H   2.13729601 -1.35677070 -1.72515714
H   2.57456540 -2.11154807 -0.16933768
H   1.53036649 -1.22125840  1.99660257

