53
Total Energy                               R     -1.177956886063696E+03
C  -0.08350101  1.12121067 -0.95778026
C  -0.02278490  0.71766428 -2.43133581
C  -1.20765251  2.14714932 -0.75978763
N  -0.38856551 -0.10423297 -0.16213112
O  -1.35083834 -0.82562417 -0.58379373
C   0.02935239 -0.32107666  1.25361644
C  -1.05550640  0.22334759  2.19276945
C   0.17773268 -1.82699554  1.47212687
C   1.37994154  0.35525860  1.51236027
C   1.49398111  1.77171284  0.95668703
N   2.79348660  2.39334905  1.22463380
C   1.27352409  1.70234531 -0.54593204
H  -0.99576280  0.38799657 -2.79842597
H   0.69998616 -0.08802262 -2.58528392
H   0.29474496  1.57986144 -3.02406865
H  -2.17378463  1.71132400 -1.02278153
H  -1.03387645  3.00412737 -1.41641638
H  -1.25950432  2.51583168  0.26623132
H  -2.01755283 -0.24760837  1.97932743
H  -1.17287067  1.30560357  2.11202073
H  -0.78792618 -0.01004220  3.22708174
H  -0.78029035 -2.34225048  1.38826995
H   0.57737785 -2.00362118  2.47444076
H   0.87208580 -2.25935918  0.74679682
H   2.17415032 -0.24720995  1.05896039
H   1.55482299  0.35400968  2.59316728
H   0.73218937  2.41215483  1.41342715
H   3.52624385  1.80598835  0.83313240
H   2.95655467  2.41638425  2.22673569
H   2.07117391  1.08690398 -0.97735022
H   1.36164490  2.69828611 -0.98966692
N  -4.96753407 -0.47153621 -0.17226727
C  -4.60206763  0.74493638  0.60790240
C  -4.35765322 -1.67378002  0.46741543
C  -6.45014796 -0.61709031 -0.19850653
C  -4.45401773 -0.33927097 -1.56684192
H  -3.27428138 -1.56117561  0.45289974
H  -4.98090842  0.63611280  1.62285766
H  -3.51919348  0.84008875  0.62066927
H  -5.04977151  1.61428375  0.12928515
H  -4.88638245  0.55415140 -2.01430743
H  -3.36787579 -0.26533874 -1.53062859
H  -4.75154962 -1.22263253 -2.12996425
H  -6.81072730 -0.70966338  0.82452692
H  -6.88076337  0.26437048 -0.67060774
H  -6.70336692 -1.50990440 -0.76781690
H  -4.72407902 -1.74733593  1.49014430
H  -4.65191125 -2.55466399 -0.10123754
B   4.60807914 -0.94249876 -0.46345090
F   4.73815745  0.46512750 -0.45220187
F   5.71070017 -1.50558699 -1.13929744
F   4.57563073 -1.41917347  0.86315488
F   3.41760089 -1.30222163 -1.12628049

