53
Total Energy                               R     -1.177771609215435E+03
C  -0.00969425 -0.19441040 -0.01260484
C  -0.32932577  0.97331619  0.90956806
C   0.36925868  0.33077791 -1.40922802
N   1.22802414 -0.88635600  0.54655162
O   1.93504121 -0.26998503  1.25874929
C   1.60806848 -2.32458787  0.22146340
C   2.34151956 -2.29235707 -1.13068723
C   2.55298776 -2.80795090  1.31175062
C   0.32623707 -3.16657587  0.18569524
C  -0.81889112 -2.56607383 -0.62869067
N  -2.02318842 -3.39338163 -0.62143650
C  -1.16523680 -1.20088587 -0.05387675
H   0.44417943  1.74037512  0.88183767
H  -0.47767163  0.64164727  1.93967284
H  -1.26044309  1.41820398  0.55568971
H   1.30860623  0.88304042 -1.38156448
H  -0.42790841  1.01762904 -1.70044983
H   0.42838780 -0.45472499 -2.15891837
H   3.15237586 -1.56310308 -1.11940756
H   1.68552053 -2.09014446 -1.97368694
H   2.77191921 -3.28645137 -1.26599599
H   3.50919621 -2.28430716  1.29075729
H   2.74020220 -3.86715302  1.12672167
H   2.10688978 -2.70874859  2.30374883
H  -0.01888965 -3.32349449  1.21386261
H   0.61153720 -4.14280580 -0.21514995
H  -0.51364140 -2.46289704 -1.67303145
H  -2.30499673 -3.57914439  0.33753606
H  -1.81853377 -4.29637428 -1.03745623
H  -1.54940231 -1.33417557  0.96390627
H  -1.95837984 -0.73388838 -0.64052872
N  -4.80907570  1.28237058  0.06853121
C  -4.32602175  0.22224106  0.99932066
C  -6.25822417  1.07112335 -0.21404960
C  -4.61176651  2.62011213  0.69765789
C  -4.04143595  1.21809092 -1.20781958
H  -6.38541805  0.08752716 -0.66298893
H  -4.92036278  0.26409055  1.91052388
H  -4.44253097 -0.74670955  0.51660117
H  -3.27839909  0.40770175  1.22596892
H  -2.98763311  1.38005975 -0.98999704
H  -4.18811266  0.23647370 -1.65497393
H  -4.41007338  1.99536593 -1.87501308
H  -5.16796959  2.65261072  1.63282151
H  -3.54887298  2.76219806  0.88635861
H  -4.97794674  3.38466330  0.01458903
H  -6.80902509  1.13171022  0.72315554
H  -6.59641132  1.84517559 -0.90071612
B   3.88280546  2.11905665 -0.15128192
F   2.64629692  2.79731786 -0.17954699
F   4.32480065  1.99610355  1.18052627
F   3.72853929  0.83484096 -0.71956234
F   4.83306086  2.84672622 -0.89852553

