53
Total Energy                               R     -1.177948115197090E+03
C  -0.00751043  1.10202336 -1.03931004
C   0.12013118  0.66923645 -2.50014365
C  -1.18613971  2.07539979 -0.90543225
N  -0.27594241 -0.11638470 -0.21821663
O  -1.18300904 -0.90244857 -0.65502584
C   0.08963814 -0.26208232  1.22250032
C  -1.05834650  0.25916628  2.09651177
C   0.30554460 -1.74802847  1.50947394
C   1.39228666  0.49130496  1.50937478
C   1.46938781  1.88718781  0.90312272
N   2.73692641  2.56449487  1.19675646
C   1.30594241  1.75761695 -0.60081780
H  -0.82572670  0.29914628 -2.89849029
H   0.87937113 -0.10809236 -2.61612809
H   0.42396127  1.53309059 -3.09677172
H  -2.12169454  1.58683263 -1.18593401
H  -1.03007159  2.91822004 -1.58380988
H  -1.28907877  2.47253545  0.10552519
H  -1.98466389 -0.27478817  1.87576809
H  -1.23186828  1.32836661  1.96573705
H  -0.81174468  0.08418665  3.14701361
H  -0.62023546 -2.31849383  1.41890274
H   0.67299561 -1.85794339  2.53292567
H   1.05103576 -2.17470584  0.83363249
H   2.23333841 -0.09108106  1.12039762
H   1.51530736  0.54149214  2.59586462
H   0.66886406  2.51234224  1.30936364
H   3.49352825  1.97160385  0.86261677
H   2.85153127  2.61365943  2.20465750
H   2.14482974  1.16657336 -0.98492906
H   1.36099856  2.74046266 -1.07708645
N  -4.94928602 -0.48013723 -0.11351292
C  -4.48753084  0.74190408  0.60363498
C  -4.27867152 -1.68029730  0.46498428
C  -6.42561456 -0.61528712  0.03457500
C  -4.60088420 -0.36773594 -1.55902581
H  -3.20354392 -1.57779894  0.32805143
H  -4.73909702  0.64466163  1.65843386
H  -3.41156741  0.83163744  0.48134053
H  -4.98766925  1.60870206  0.17506089
H  -5.08746712  0.51618382 -1.96799830
H  -3.51957884 -0.28236925 -1.65233496
H  -4.95245521 -1.26150150 -2.07182686
H  -6.66413018 -0.69987985  1.09349541
H  -6.90283747  0.26704158 -0.38811679
H  -6.74993224 -1.50863748 -0.49650489
H  -4.52426585 -1.74073343  1.52386281
H  -4.64218084 -2.56494575 -0.05554140
B   4.46304487 -1.01566084 -0.40047482
F   4.65918932  0.37380109 -0.23240905
F   5.59727839 -1.57302880 -1.02622796
F   4.27736032 -1.61882995  0.86042609
F   3.32635100 -1.23929086 -1.20250843

