53
Total Energy                               R     -1.178050697769434E+03
C  -2.27399514 -1.12297709 -0.97417892
C  -1.53883366 -2.30838702 -1.61202851
C  -3.73773011 -1.25432666 -1.43350857
N  -2.15516194 -1.22695625  0.51855809
O  -0.78126046 -1.43807658  0.83881817
C  -2.61748565 -0.00192487  1.25348806
C  -4.15315592  0.11551860  1.26128909
C  -2.21150093 -0.13858037  2.72528337
C  -1.98912923  1.28505321  0.68114053
C  -2.17169208  1.43451520 -0.82831340
N  -1.49427350  2.61671098 -1.38120104
C  -1.65931293  0.18080228 -1.52220225
H  -1.91369630 -3.25918617 -1.21724272
H  -0.46342442 -2.27057108 -1.44447072
H  -1.71064304 -2.30616569 -2.69276314
H  -4.23936155 -2.06901998 -0.90357806
H  -3.75936995 -1.49090667 -2.50120745
H  -4.33295405 -0.35329861 -1.30578356
H  -4.61914228 -0.85860518  1.43435421
H  -4.57653784  0.53540046  0.35156159
H  -4.45773182  0.77756188  2.07710284
H  -2.63777559 -1.04776090  3.16417601
H  -2.59661966  0.71533292  3.29131597
H  -1.13123531 -0.17138147  2.85706018
H  -0.91409569  1.28484406  0.89336657
H  -2.41542476  2.15641976  1.19430642
H  -3.23556413  1.56029058 -1.05206297
H  -0.49656074  2.52325698 -1.20586613
H  -1.79009765  3.43372980 -0.85458634
H  -0.57086110  0.14095276 -1.39376320
H  -1.84902077  0.24394824 -2.60004939
N   2.89106124 -2.06662993  0.09629017
C   2.42415613 -1.04703714 -0.88653147
C   4.34614310 -2.31509437 -0.10192807
C   2.65432056 -1.56169419  1.47963302
C   2.13984456 -3.33859454 -0.10310228
H   4.50436532 -2.67415139 -1.11749707
H   3.01860541 -0.14633985 -0.75565152
H   2.55904449 -1.44384857 -1.89145597
H   1.37327615 -0.83884215 -0.69664893
H   1.08163999 -3.14899171  0.06684317
H   2.30462176 -3.68627368 -1.12145098
H   2.50820804 -4.07498463  0.60937356
H   3.21554059 -0.63882736  1.61354751
H   1.58758949 -1.37841367  1.60422762
H   2.99606074 -2.31493288  2.18780717
H   4.88524211 -1.38220604  0.05476000
H   4.67500422 -3.06381394  0.61673774
B   2.17674182  2.48554153 -0.00258833
F   1.93554768  3.85557923  0.22667001
F   3.56709771  2.24289090 -0.00541708
F   1.56913631  1.72312941  1.01179040
F   1.64001166  2.12264240 -1.25858116

