45
Total Energy                               R     -8.261146023557726E+02
C  -0.81569121  1.62154128 -0.06401523
C  -1.00109130  2.92836925  0.70509930
C   0.32470862  1.73689069 -1.07797732
N  -0.56803223  0.50360986  0.87214272
O   0.43527895  0.47299932  1.64567582
C  -1.48602237 -0.65254383  0.71639214
C  -0.69888300 -1.85036630  0.17860688
C  -2.13782761 -0.98099975  2.05814261
C  -2.46171894 -0.06102227 -0.28294693
C  -3.67090911 -0.79590752 -0.74057984
O  -3.69601442 -2.03074446 -0.79418291
N  -4.72410879 -0.04518415 -1.09470963
C  -2.08839147  1.14722886 -0.69918048
H  -0.08078256  3.18827607  1.23366047
H  -1.81447908  2.84713040  1.42979065
H  -1.23467340  3.73560007  0.00719394
H   1.25634508  1.99406387 -0.56877395
H   0.09795594  2.52786407 -1.79665209
H   0.46282166  0.80065938 -1.62334380
H   0.11384292 -2.09140624  0.86811761
H  -0.27502309 -1.63363114 -0.80454714
H  -1.34712910 -2.72249767  0.09670348
H  -1.37795112 -1.28732641  2.78086414
H  -2.84303148 -1.80569492  1.93600103
H  -2.67571648 -0.11726508  2.45597374
H  -4.72874128  0.95584064 -0.98696342
H  -5.55289016 -0.49518148 -1.45237834
H  -2.60360164  1.76171387 -1.42863223
N   3.95338501 -0.39516492 -0.28261042
C   3.91499957  0.59450648  0.83181240
C   5.14088388 -1.28053472 -0.12093512
C   2.71108983 -1.21818774 -0.25800367
C   4.04145129  0.32623703 -1.58425811
H   6.04040303 -0.66765008 -0.13529781
H   3.83571226  0.05615398  1.77451019
H   4.83150558  1.18152252  0.80861452
H   3.05094532  1.24142077  0.69593767
H   3.16688222  0.96634881 -1.68815785
H   4.94989761  0.92602912 -1.59096926
H   4.06847297 -0.40711266 -2.38858170
H   2.64771245 -1.72715040  0.70183090
H   1.85974977 -0.55745509 -0.39133074
H   2.75602067 -1.94373329 -1.06862401
H   5.05848060 -1.80480046  0.82958575
H   5.15885801 -1.99385188 -0.94317343

