33
Total Energy                               R     -1.036331630046328E+03
C  -1.55766867 -1.28795487 -0.80544479
C  -0.78093522 -2.59936357 -0.75470864
C  -2.92584062 -1.44804510 -1.48400940
N  -1.82513434 -0.81502293  0.59648021
O  -2.30382139 -1.49004128  1.42641399
C  -1.43791495  0.62577945  0.82543182
C  -2.75561809  1.39661581  0.99417176
C  -0.56649948  0.70203861  2.07527188
C  -0.70895192  0.89469907 -0.47007977
C  -0.04839242  2.20289639 -0.74019404
O  -0.54031051  3.25844277 -0.33095361
N   1.06447265  2.14349285 -1.48061950
C  -0.77943939 -0.12013878 -1.32408871
H  -1.37780211 -3.37644340 -0.27512440
H   0.16547221 -2.47505933 -0.22846500
H  -0.57819729 -2.89838338 -1.78417512
H  -3.49399116 -2.24231419 -0.99722319
H  -2.74077153 -1.72506370 -2.52282997
H  -3.49256185 -0.51640539 -1.46075723
H  -3.30475660  1.00171069  1.85067468
H  -3.37103822  1.33215412  0.09600278
H  -2.50602452  2.43989116  1.18134768
H  -1.14079135  0.41444451  2.95685282
H  -0.24682283  1.73891619  2.18975156
H   0.31550312  0.06857029  1.98067884
H   1.56399377  1.26992619 -1.58688081
H   1.56288139  3.00101107 -1.66730228
H  -0.35632790 -0.14977842 -2.31953947
B   2.84203095 -0.57385709  0.25337512
F   2.46544874 -0.44702480 -1.11014485
F   1.97861039 -1.48399563  0.89305134
F   4.16515318 -1.04735093  0.32208398
F   2.75038010  0.68286533  0.87804340

