45
Total Energy                               R     -8.262256519770085E+02
C  -1.10461969  1.75222156 -0.01650169
C  -0.10650453  1.89683765  1.14819829
C  -1.31933929  3.12844507 -0.64805955
N  -0.74478225  0.76822530 -1.06595593
O   0.62808895  0.72341875 -1.36228012
C  -1.32679644 -0.55722626 -0.70995215
C  -1.68517335 -1.28244848 -2.00877653
C  -0.42466258 -1.48167873  0.12780586
C  -2.51121226 -0.11881654  0.13532039
C  -3.62854537 -1.00687158  0.54517266
O  -4.07210536 -1.90174914 -0.18753997
N  -4.14131177 -0.78519617  1.76780638
C  -2.37773002  1.15363945  0.50625866
H   0.85203122  2.28250736  0.79168043
H   0.07339534  0.95178703  1.66230441
H  -0.50031360  2.60605776  1.88261439
H  -0.39066820  3.47930676 -1.10892075
H  -1.62028597  3.86567737  0.10288930
H  -2.09181872  3.08879404 -1.42071695
H  -0.79067880 -1.33721191 -2.63745438
H  -2.46007410 -0.74629803 -2.56277419
H  -2.03077814 -2.30237404 -1.82895284
H   0.46984352 -1.76629150 -0.43127500
H  -0.97097474 -2.39780454  0.37432344
H  -0.11158019 -1.01989801  1.06496747
H  -3.74921252 -0.10109402  2.39327544
H  -4.93480026 -1.32480820  2.07788538
H  -3.06619719  1.71749672  1.12858742
N   3.95523230 -0.42853702  0.26861357
C   5.22080585 -1.00841309  0.79720292
C   3.51237292 -1.20162716 -0.92744228
C   2.89840948 -0.49097435  1.31815022
C   4.17892272  0.99424954 -0.11654186
H   4.29364331 -1.14766763 -1.68396541
H   5.03935517 -2.04424879  1.07889895
H   5.98097023 -0.95823747  0.01939237
H   5.53353053 -0.43242958  1.66656761
H   4.49933382  1.54752140  0.76472944
H   4.94957465  1.03042837 -0.88482158
H   3.24437679  1.40233857 -0.49890810
H   2.72629808 -1.53334074  1.58102892
H   3.23842824  0.06735045  2.18898628
H   1.99283153 -0.04760117  0.91260328
H   3.34801576 -2.23645402 -0.63135277
H   2.58835294 -0.76233037 -1.30128972

