55
Total Energy                               R     -1.020012167253807E+03
C  -0.05189742  1.11066655  1.72268271
C   1.09278277  0.78213390  2.67697093
C  -1.04373546  2.05185398  2.43341781
N   0.51477466  1.80562621  0.53246083
O   1.57159044  2.50037373  0.68590739
C  -0.28198133  2.08440214 -0.69159296
C  -0.83980890  3.51451743 -0.60450065
C   0.67594062  1.98334678 -1.88987613
C  -1.38084449  1.04320573 -0.86692568
C  -1.50529567 -0.07249518  0.00879237
C  -0.78565649 -0.12757983  1.23679192
C  -0.88044337 -1.26015910  2.00256037
C  -1.67112926 -2.35618854  1.61315280
C  -2.43206964 -2.31417664  0.46817489
N  -3.29410665 -3.36129847  0.14680097
C  -2.38028001 -1.14006862 -0.35315807
C  -3.18788132 -1.00917947 -1.50812738
C  -3.11775040  0.11854462 -2.28226032
C  -2.19616420  1.13319976 -1.97123742
H   1.61234600  1.69050908  2.97851432
H   1.81284443  0.09622894  2.22681324
H   0.69367951  0.32198163  3.58082605
H  -0.56665985  3.00955993  2.65860962
H  -1.35937746  1.58999520  3.37180599
H  -1.93647017  2.23257616  1.83275409
H  -0.02397940  4.21731520 -0.42281260
H  -1.57813498  3.61798595  0.19083553
H  -1.31403877  3.78708602 -1.54883671
H   1.51460132  2.67023621 -1.77285585
H   0.14486514  2.24967409 -2.80447424
H   1.05915464  0.96761257 -2.00007333
H  -0.34509571 -1.33761490  2.94110944
H  -1.69874032 -3.24164032  2.24130278
H  -3.09659305 -4.20794552  0.66204753
H  -3.38154419 -3.56339734 -0.83889603
H  -3.88454772 -1.79296813 -1.78240025
H  -3.75337385  0.22235966 -3.15497121
H  -2.11827348  1.98402747 -2.63912059
N   3.37271905 -1.32531700 -0.65055259
C   3.67958980 -0.37488295 -1.75690531
C   1.90419732 -1.33297905 -0.39381771
C   3.82032838 -2.69492466 -1.03033277
C   4.08513924 -0.88792060  0.58334670
H   1.60277974 -0.32572893 -0.12291746
H   3.13687616 -0.68639377 -2.64762081
H   3.36813533  0.62346613 -1.45461793
H   4.75212257 -0.39366029 -1.94373575
H   5.15618659 -0.89647239  0.38804621
H   3.75683651  0.11917928  0.83573924
H   3.84436304 -1.57753827  1.39036974
H   3.29036967 -2.99679980 -1.93228632
H   4.89328385 -2.67472914 -1.21308978
H   3.59069236 -3.37667275 -0.21333344
H   1.38947027 -1.64989400 -1.29936522
H   1.69354787 -2.02230048  0.42147361

