60
Total Energy                               R     -1.444770834946197E+03
C  -0.66556262  0.60941023  0.09852367
C   0.21236781  1.50952676  0.97845635
C  -0.17258354  0.74667567 -1.36098362
N  -0.54393098 -0.75125063  0.67182372
O   0.79125917 -1.17048484  0.64065408
C  -1.40109519 -1.81005604  0.09059050
C  -0.91268283 -2.35589122 -1.27121327
C  -1.34782765 -2.96676386  1.10619994
C  -2.83878030 -1.32441912 -0.04621816
C  -3.15625911  0.06318765  0.03493361
C  -2.12309117  1.03945659  0.15898706
C  -2.48827075  2.36032631  0.23664097
C  -3.83602711  2.77143108  0.21855958
C  -4.85503080  1.85935857  0.08370189
N  -6.18940753  2.27504720 -0.00817102
C  -4.52424050  0.47077209 -0.04167606
C  -5.52764565 -0.50485411 -0.25932544
C  -5.19318898 -1.82754246 -0.38257369
C  -3.85129169 -2.23265699 -0.26484208
H   1.22628780  1.11324483  0.97394154
H  -0.15088969  1.51722141  2.01150963
H   0.24459355  2.53866958  0.61389794
H   0.77538859  0.21781290 -1.47665325
H  -0.01498661  1.80021318 -1.61204150
H  -0.89059316  0.34658723 -2.07936776
H   0.16925065 -2.49353683 -1.22055102
H  -1.14392406 -1.68766422 -2.10155898
H  -1.38273495 -3.32033846 -1.48646743
H  -0.30570652 -3.25192088  1.25619452
H  -1.90009914 -3.84558781  0.76537177
H  -1.76023192 -2.65067807  2.06946771
H  -1.73078230  3.13199834  0.31733190
H  -4.07238085  3.82843081  0.30871958
H  -6.32021844  3.23675649  0.27559353
H  -6.85287330  1.68574128  0.47631177
H  -6.56674644 -0.20957861 -0.35307690
H  -5.96348532 -2.57031175 -0.56567609
H  -3.62246325 -3.28936252 -0.35160609
N   3.82589413 -2.15839973  0.02778455
C   2.99041825 -3.28475310  0.53784259
C   5.21581227 -2.62262952 -0.21919727
C   3.22373337 -1.64668637 -1.23817203
C   3.82632028 -1.05814775  1.03740748
H   5.63642914 -2.98965622  0.71610805
H   2.98350738 -4.07725608 -0.21036161
H   3.43218704 -3.65161857  1.46407446
H   1.98507503 -2.88933728  0.70750672
H   2.78895611 -0.74385026  1.17851938
H   4.25051152 -1.44285830  1.96467477
H   4.43977046 -0.24417557  0.65699134
H   3.21214345 -2.45619414 -1.96775723
H   2.21092164 -1.31584748 -0.99219328
H   3.83360224 -0.82163305 -1.60364195
H   5.19333422 -3.42211692 -0.95874663
H   5.80497335 -1.78527999 -0.59076546
B   4.21757324  2.55449147 -0.12477332
F   3.18916533  2.04545612 -0.94087653
F   4.42262656  3.91944607 -0.42193263
F   3.86332953  2.41921334  1.23318449
F   5.41097975  1.83825161 -0.37182290

