60
Total Energy                               R     -1.444496794515798E+03
C  -2.59222919  0.58721252 -0.92123921
C  -3.15929238 -0.36327706 -1.95915739
C  -3.53314506  1.79333173 -0.72534534
N  -2.53848705 -0.14336562  0.39852252
O  -3.03436146 -1.20811004  0.49503709
C  -1.89472680  0.45411640  1.62917524
C  -3.06180494  1.03557469  2.45784490
C  -1.25077055 -0.71106131  2.39096088
C  -0.85390121  1.48981982  1.23559475
C  -0.43541956  1.64126256 -0.11317837
C  -1.16892267  1.05444375 -1.17776585
C  -0.65151710  1.09214690 -2.44785424
C   0.55954566  1.74438333 -2.72075980
C   1.25032573  2.41697369 -1.73170799
N   2.38733614  3.14113493 -2.03455786
C   0.74286949  2.38847857 -0.38913951
C   1.37858241  3.07868200  0.66939756
C   0.89195976  3.00024027  1.94798741
C  -0.21123463  2.17744171  2.23627830
H  -4.15886600 -0.69402878 -1.67506487
H  -2.52008841 -1.23463612 -2.10516909
H  -3.25185212  0.17266581 -2.90308817
H  -4.51070935  1.47490840 -0.35666691
H  -3.65902337  2.24304550 -1.71174346
H  -3.11520560  2.54877466 -0.06161405
H  -3.82727102  0.27419928  2.61791694
H  -3.50603380  1.91549784  1.99744840
H  -2.65742762  1.31691564  3.43045972
H  -2.00520267 -1.41049697  2.75074572
H  -0.72715551 -0.29991978  3.25314215
H  -0.53783532 -1.24124977  1.76150250
H  -1.18095087  0.63659108 -3.27563996
H   0.94399753  1.74689896 -3.73594394
H   2.78078466  2.94765624 -2.94455702
H   3.10433729  3.18897963 -1.32589258
H   2.25176555  3.69162544  0.47793983
H   1.37644952  3.54344812  2.75164591
H  -0.52501520  2.06793851  3.26876469
N   3.40592901 -0.81437040  0.51627139
C   2.09548349 -0.56989314  1.18493101
C   4.50341817 -0.73372565  1.52036125
C   3.39589709 -2.16864377 -0.10667921
C   3.62053456  0.21612233 -0.53809564
H   4.49864097  0.26076959  1.96332377
H   1.95335704 -1.32560562  1.95543553
H   2.10926729  0.42414011  1.62789330
H   1.30932551 -0.64256786  0.43715685
H   2.81852657  0.13618611 -1.26966681
H   3.60827530  1.19809445 -0.06867175
H   4.58377869  0.03553655 -1.01268398
H   3.24768920 -2.91095036  0.67525118
H   2.58167527 -2.21364727 -0.82672540
H   4.35089525 -2.33050026 -0.60409635
H   4.33256288 -1.48773199  2.28668405
H   5.45152357 -0.91751173  1.01743052
B  -0.27874276 -3.33082296 -0.46678306
F  -1.54879280 -3.92027706 -0.61585387
F  -0.37941911 -1.93668964 -0.67251083
F   0.20808281 -3.57869157  0.83327686
F   0.61024353 -3.87785268 -1.41526807

