60
Total Energy                               R     -1.444673642189895E+03
C  -0.39794177 -0.05136980 -1.22258343
C   0.37127991 -0.67295725 -2.39868478
C  -1.90020952 -0.04961086 -1.54892520
N  -0.15823629 -0.92130165 -0.04004220
O  -0.40214083 -2.15983655 -0.19238378
C  -0.09862384 -0.37834920  1.34639856
C  -1.50191347  0.09596402  1.77442787
C   0.35190942 -1.49589693  2.28260794
C   0.84678199  0.81340377  1.34984859
C   0.84874447  1.68641513  0.22069401
C   0.14384814  1.34841916 -0.96700276
C   0.06246406  2.29022756 -1.96525023
C   0.70370839  3.53499072 -1.87325301
C   1.47437106  3.85783883 -0.77683366
N   2.10966910  5.09527850 -0.69284977
C   1.54426832  2.92947126  0.31026181
C   2.27416737  3.22674862  1.48954007
C   2.31292300  2.33883157  2.52875341
C   1.58467709  1.13340266  2.46154992
H   0.04923192 -1.70177348 -2.56414830
H   1.44723425 -0.66274687 -2.21142902
H   0.17695860 -0.10229422 -3.30822649
H  -2.25395995 -1.07630844 -1.66108600
H  -2.07564748  0.47397032 -2.49126627
H  -2.48686512  0.44188902 -0.77378852
H  -2.22946315 -0.70727831  1.63719615
H  -1.82935576  0.96882530  1.20804966
H  -1.48056305  0.37218916  2.83145757
H  -0.30584472 -2.35757669  2.18183283
H   0.29533312 -1.15527239  3.31682636
H   1.37591691 -1.81096723  2.07672360
H  -0.47783880  2.06689057 -2.87955568
H   0.62323320  4.23848543 -2.69701494
H   2.16714672  5.57767968 -1.57923186
H   3.00973945  5.09836943 -0.23451343
H   2.79447854  4.17276543  1.58700534
H   2.87604198  2.57283236  3.42626756
H   1.59207215  0.47979369  3.32527994
N   3.59653369 -2.90766351 -0.38839877
C   3.37189029 -1.47714885 -0.03073098
C   5.04833388 -3.22444683 -0.27725374
C   2.81850095 -3.77946679  0.53833297
C   3.13712632 -3.15015361 -1.78567935
H   5.59790467 -2.58317947 -0.96462338
H   3.71055959 -1.31554605  0.99113669
H   3.93666493 -0.85112674 -0.71970975
H   2.30908640 -1.26393274 -0.11328128
H   2.06955684 -2.94804618 -1.83906601
H   3.68148059 -2.48619920 -2.45509885
H   3.33592601 -4.18965708 -2.04135607
H   3.15934925 -3.59938559  1.55641097
H   1.76210109 -3.53077306  0.44240023
H   2.98993940 -4.81894486  0.26264676
H   5.36819980 -3.04007923  0.74691787
H   5.19866137 -4.27117212 -0.53628774
B  -5.36276668 -0.66880589  0.10037698
F  -5.37893278 -0.35882821 -1.27604074
F  -4.47591564 -1.73956441  0.33456788
F  -4.94629920  0.46196273  0.83350124
F  -6.66217688 -1.04032357  0.51113211

