32
Total Energy                               R     -9.069260259882274E+02
C  -1.61470531  1.31371968 -0.03676213
C  -0.11675307  1.52271142 -0.32574149
C  -2.45810249  2.36976680 -0.72295355
N  -1.95315929 -0.03270019 -0.62245396
O  -2.55083168 -0.09132564 -1.63575467
C  -1.50466696 -1.33451665  0.01772311
C  -2.69046567 -2.30072107 -0.05637389
C  -0.33487631 -1.84718167 -0.83877699
C  -1.10501342 -1.10220392  1.44858003
C  -1.30742454  0.02430366  2.11553744
C  -1.89464014  1.23960550  1.47091681
H   0.09276655  1.42461803 -1.39187177
H   0.51533308  0.84030141  0.23761476
H   0.11408307  2.54359342 -0.01655171
H  -2.20208577  2.47423713 -1.77776376
H  -2.25497376  3.31930817 -0.22515170
H  -3.52408620  2.15243966 -0.62967405
H  -2.94944515 -2.53618242 -1.08861217
H  -3.56099713 -1.89387782  0.46139497
H  -2.38907151 -3.22186577  0.44430661
H  -0.65882890 -2.00565812 -1.86870936
H  -0.03046642 -2.80580827 -0.41500243
H   0.51947129 -1.17291369 -0.81972626
H  -0.66746432 -1.97457542  1.92302777
H  -1.03573457  0.08796121  3.16381346
H  -1.46897176  2.14818607  1.90236575
H  -2.97443546  1.28514168  1.64840777
B   3.28568575  0.02417158 -0.06169945
F   3.28029334  1.41530647  0.16938442
F   4.60829936 -0.46050963  0.00764292
F   2.49855597 -0.61858513  0.91727235
F   2.75564400 -0.24056274 -1.34197210

