44
Total Energy                               R     -6.968168956436930E+02
C   1.51812917 -1.26176980 -0.14803229
C   0.54011416 -1.31770531  1.04121663
C   1.09386335 -2.33267872 -1.15650054
N   1.59540889  0.04127613 -0.85361336
O   0.36252127  0.34885117 -1.48236381
C   2.05534161  1.19699406 -0.04325447
C   2.60508932  2.25412209 -1.01729748
C   0.97723220  1.89331985  0.81718333
C   3.19361995  0.78599407  0.85819168
C   3.60448960 -0.46615935  1.02505495
C   2.93257520 -1.61381688  0.33863476
H  -0.41727654 -0.86513472  0.77668459
H   0.93009081 -0.80765208  1.92480679
H   0.34851894 -2.35847274  1.32158340
H   0.03651736 -2.25405677 -1.41810548
H   1.25760293 -3.32699058 -0.72807722
H   1.68140258 -2.26068210 -2.07671797
H   1.82230547  2.59045188 -1.70195796
H   3.43032391  1.84760323 -1.60896626
H   2.97380187  3.12946644 -0.47340298
H   0.18423785  2.30582430  0.18980704
H   1.43391363  2.72336604  1.36536785
H   0.52221003  1.22534568  1.54810037
H   3.69807283  1.60172145  1.37352823
H   4.45271673 -0.67963799  1.67201189
H   2.87435626 -2.47532749  1.01382414
H   3.54493660 -1.94080160 -0.51221503
N  -3.58017243  0.08457172  0.11259385
C  -3.62542216 -0.75408369  1.34413045
C  -4.95214223  0.56646781 -0.21329953
C  -2.68618372  1.25499219  0.34581800
C  -3.05824776 -0.72929443 -1.02272319
H  -5.59545569 -0.29513382 -0.38286703
H  -4.00843671 -0.14904726  2.16413148
H  -4.28205864 -1.60369554  1.16505877
H  -2.61746508 -1.09833476  1.57016851
H  -2.06422477 -1.09208202 -0.76954165
H  -3.73400955 -1.56654645 -1.18848798
H  -3.01142736 -0.10204909 -1.91101275
H  -3.10196445  1.85303009  1.15502257
H  -1.69928609  0.89020470  0.61743605
H  -2.63067617  1.84304512 -0.56836621
H  -5.32445505  1.15444420  0.62388733
H  -4.90184910  1.18110614 -1.11038719

