44
Total Energy                               R     -6.967074730694942E+02
C   1.46277126  1.31094171  0.09639827
C   0.70493784  1.46014510 -1.22955708
C   0.91456903  2.29662405  1.12174989
N   1.28322650 -0.07549881  0.61026232
O   0.25840719 -0.32551918  1.32902672
C   1.97199850 -1.24936612  0.00911230
C   2.42243707 -2.17243383  1.14883858
C   1.00152144 -2.00360636 -0.91147714
C   3.18943513 -0.81086414 -0.76124395
C   3.65279612  0.43168687 -0.80040145
C   2.96287105  1.56160923 -0.10198467
H  -0.34036258  1.16885426 -1.11197312
H   1.14745989  0.85499259 -2.02306754
H   0.73373354  2.50652236 -1.54443766
H  -0.17067975  2.23644654  1.21057010
H   1.17117030  3.30869090  0.79888700
H   1.35625336  2.13181985  2.10747373
H   1.56525003 -2.53879992  1.71684085
H   3.10240582 -1.65193220  1.82766875
H   2.94722730 -3.03412931  0.72979056
H   0.15732845 -2.39724221 -0.34219871
H   1.52418863 -2.84725194 -1.36880872
H   0.62136517 -1.36287763 -1.70950002
H   3.70936937 -1.61570708 -1.27417807
H   4.56454897  0.65142060 -1.34872146
H   3.07981025  2.48861987 -0.67016756
H   3.43655902  1.73829556  0.87146283
N  -3.47500831 -0.08058026 -0.10004846
C  -3.62259448 -0.47881238  1.32880408
C  -2.38536830 -0.88578465 -0.72275600
C  -4.75518946 -0.32359498 -0.82172723
C  -3.12891112  1.36684990 -0.17526459
H  -1.46784745 -0.70195199 -0.16831739
H  -3.87231409 -1.53750082  1.37264812
H  -2.67956489 -0.29310886  1.84069492
H  -4.41793036  0.11425393  1.77716706
H  -3.93328766  1.94124407  0.28121002
H  -2.19792925  1.53118656  0.36402205
H  -3.01392703  1.64670515 -1.22088230
H  -4.99826082 -1.38268721 -0.75547694
H  -5.53869651  0.27135179 -0.35554613
H  -4.63015402 -0.03138086 -1.86300001
H  -2.65550614 -1.93908317 -0.66721438
H  -2.27263883 -0.58041025 -1.76160292

