57
Total Energy                               R     -1.373755492435240E+03
C  -2.61962456 -0.61590621  1.29481238
C  -3.03673848  0.38072529  2.39101293
C  -3.18568540 -2.00732884  1.66387136
N  -3.10152989 -0.04086395  0.02266780
O  -4.51251200  0.01163883  0.02235163
C  -2.61684213 -0.64572278 -1.23555613
C  -3.16640915 -2.05476623 -1.56205421
C  -3.04798202  0.31469661 -2.35790229
C  -1.09954135 -0.74540917 -1.20369890
C  -0.39014878 -0.80119896  0.03266969
C  -1.10360551 -0.73191582  1.26564968
C  -0.41053638 -0.82444566  2.45094496
C   0.98422113 -0.86580599  2.47350512
C   1.68438873 -0.88074814  1.29817598
N   3.12054253 -0.66211477  1.42494118
O   3.70935569 -1.18991262  2.35043093
O   3.65910376  0.08928731  0.62593652
C   1.03482424 -0.94124294  0.03702204
C   1.66660628 -1.12714111 -1.21959673
N   3.04836576 -1.57881499 -1.33593295
O   3.44388337 -2.42068439 -0.54385858
O   3.72819437 -1.13855626 -2.24416641
C   0.97846032 -1.04820243 -2.39883496
C  -0.40128880 -0.83940459 -2.38562716
H  -4.12024664  0.49087301  2.38899678
H  -2.58828272  1.36180413  2.21150524
H  -2.74576803  0.04258916  3.38615466
H  -4.26712458 -2.01680527  1.51708082
H  -2.98185411 -2.22569239  2.71544475
H  -2.74485774 -2.80932669  1.07174402
H  -4.24446412 -2.08137378 -1.39245822
H  -2.69798559 -2.83494207 -0.96136916
H  -2.97895524 -2.29359101 -2.61223868
H  -4.13256014  0.41106257 -2.35652509
H  -2.75696528 -0.04630825 -3.34477397
H  -2.61335957  1.30661280 -2.20697486
H  -0.93062764 -0.81395168  3.39882699
H   1.51360615 -0.82809340  3.41725607
H   1.49592100 -1.20500059 -3.33714252
H  -0.91401979 -0.81080797 -3.33693201
N   0.56768954  3.44735632 -0.14625607
C   1.70265718  2.50200132  0.05289492
C   0.74556510  4.17857978 -1.43221120
C  -0.70678388  2.67620996 -0.18771884
C   0.52758881  4.41953086  0.98165530
H   1.67874098  4.73777822 -1.39141956
H   1.71830357  1.79863298 -0.77763044
H   2.63063795  3.07023490  0.08249191
H   1.55227143  1.97789509  0.99489898
H   0.39613633  3.86912300  1.91173150
H   1.46510108  4.97259617  1.00059679
H  -0.30732241  5.10065492  0.82747448
H  -0.65796957  1.97612618 -1.01868528
H  -0.82021331  2.14003524  0.75231717
H  -1.53397236  3.37021426 -0.32772187
H   0.77611429  3.45371361 -2.24419966
H  -0.09471314  4.85779588 -1.56602505

