45
Total Energy                               R     -1.583841567943213E+03
C   0.94653342  1.70400972  0.51805519
C   0.88030621  2.47088198  1.84678213
C   1.80964614  2.47116166 -0.50193398
N   1.69837545  0.42435024  0.80019289
O   2.64976441  0.48083895  1.48637602
C   1.29745186 -0.89384457  0.19348141
C   1.59801366 -0.79226959 -1.31992953
C   2.13914494 -1.98343187  0.82831597
C  -0.20342807 -1.02423197  0.39726329
C  -1.03450710  0.10370229  0.14619686
C  -0.46240962  1.40091185  0.03692445
C  -1.23758952  2.46178470 -0.35352368
C  -2.61900400  2.30822582 -0.51648246
C  -3.19981449  1.09389232 -0.28497362
N  -4.66055972  1.10874186 -0.18950863
O  -5.28567753  1.75044479 -1.00851462
O  -5.16774149  0.51246424  0.74597026
C  -2.44152944 -0.07264544 -0.00737408
C  -2.92947654 -1.40089115  0.12666330
N  -4.28495336 -1.77274265 -0.28718249
O  -4.70062334 -1.30075317 -1.33207962
O  -4.89948930 -2.56567320  0.39578817
C  -2.13424725 -2.44231854  0.50608665
C  -0.75156266 -2.25165465  0.64623757
H   1.88149284  2.70176359  2.20828415
H   0.33532773  1.89889161  2.59981983
H   0.35362355  3.40678532  1.66506224
H   2.81530155  2.60047996 -0.10297436
H   1.36628050  3.45723301 -0.63658826
H   1.85585791  1.96943836 -1.46669280
H   2.64655259 -0.54330700 -1.47991944
H   0.95840025 -0.07499997 -1.83194601
H   1.39791530 -1.78223488 -1.73173976
H   3.19773588 -1.77505843  0.68245691
H   1.92098698 -2.92628689  0.32899980
H   1.93421434 -2.08539042  1.89526495
H  -0.81974493  3.45532671 -0.45338579
H  -3.23449977  3.17095980 -0.73748250
H  -2.55276810 -3.43530657  0.60987495
H  -0.13720892 -3.11247973  0.86943841
B   5.51557888 -0.37111270 -0.50107912
F   4.60658019  0.70484424 -0.59740249
F   5.57573252 -0.81663219  0.83519127
F   5.08149501 -1.42634498 -1.32991982
F   6.79370049  0.05691460 -0.91327423

