57
Total Energy                               R     -1.373629534551722E+03
C   1.04560180 -0.40492098  1.73662180
C   2.02549337 -1.57032011  1.55348531
C   0.85815545 -0.09297632  3.23256652
N   1.64980396  0.77642962  1.07553033
O   2.86866659  1.01098471  1.35495304
C   0.89884183  1.92131792  0.50812401
C   0.87518078  3.05309090  1.54959573
C   1.65750766  2.36299191 -0.75386568
C  -0.51724680  1.52746363  0.13016162
C  -1.05603012  0.23651064  0.39387626
C  -0.30842714 -0.72864123  1.13106439
C  -0.85312300 -1.96271634  1.38642273
C  -2.08788503 -2.33194157  0.84598839
C  -2.80392688 -1.42916281  0.11401055
N  -3.95684779 -1.97218331 -0.59962336
O  -4.65214028 -2.79603913 -0.03802792
O  -4.13338822 -1.60791372 -1.75182620
C  -2.37442869 -0.08652599 -0.06127795
C  -3.13619359  0.96667004 -0.62870060
N  -4.57742960  0.85212209 -0.84447447
O  -5.23484106  0.26865086  0.00285690
O  -5.05938634  1.38634941 -1.82408711
C  -2.60894806  2.20560106 -0.86311015
C  -1.28720576  2.47307352 -0.50475571
H   3.01010082 -1.28863215  1.92278797
H   2.10636528 -1.85060755  0.50101590
H   1.69850951 -2.43953380  2.12244253
H   1.81354315  0.20738356  3.66799683
H   0.50326077 -0.98565605  3.75126095
H   0.13021036  0.70630408  3.38360614
H   1.89553791  3.29556756  1.85054407
H   0.30158491  2.76659694  2.43277663
H   0.42354498  3.94802038  1.11924436
H   2.69833033  2.57266040 -0.50826622
H   1.21864637  3.27293707 -1.16299778
H   1.62297560  1.58376872 -1.51824299
H  -0.32184641 -2.69443021  1.97909306
H  -2.45184001 -3.34439390  0.96678114
H  -3.22703221  2.98774280 -1.28551149
H  -0.89892494  3.46334884 -0.70308244
N   5.24205771 -0.76157607 -1.31439605
C   5.77946087  0.19519188 -0.30533715
C   3.88356264 -0.32008596 -1.74097388
C   6.14494960 -0.79768480 -2.49918347
C   5.15803178 -2.12183796 -0.71090335
H   3.23509424 -0.29967082 -0.86948523
H   5.82129360  1.18670116 -0.75292454
H   5.11659581  0.20040122  0.55769550
H   6.77728949 -0.12872816 -0.01394966
H   6.15897613 -2.43641536 -0.42024863
H   4.51055471 -2.07735392  0.16256425
H   4.74784127 -2.80823658 -1.44965096
H   6.19586412  0.20071093 -2.92984581
H   7.13403557 -1.11874405 -2.17720716
H   5.73984249 -1.49999209 -3.22560851
H   3.96206268  0.67473904 -2.17550357
H   3.50298338 -1.02487597 -2.47834541

