50
Total Energy                               R     -8.668508691141635E+02
C  -0.70456443 -1.01167655  0.82293044
C  -0.94776477 -1.67862113  2.17406001
C   0.05307331 -1.94402600 -0.12521560
N   0.05217270  0.25075799  1.00742539
O   1.19681448  0.27326599  1.54924737
C  -0.55712630  1.46237466  0.40640377
C  -0.69826270  2.55414291  1.46385705
C   0.28614257  1.94483266 -0.77595778
C  -1.88160031  0.89749191 -0.03740639
C  -1.96287897 -0.47029405  0.19595818
C  -3.09793607 -1.18483932 -0.14941502
C  -4.13902455 -0.48310706 -0.73471229
N  -5.36021414 -1.21458768 -1.09126984
C  -4.08021741  0.87983970 -0.98033901
C  -2.93345042  1.58214506 -0.62602838
H   0.00190621 -1.96776100  2.63000863
H  -1.54750340 -2.58074469  2.03346215
H  -1.47891716 -1.00879157  2.85406141
H   1.02651714 -2.20598093  0.29716123
H   0.20491863 -1.47475930 -1.09983545
H  -0.52007559 -2.86325429 -0.26725503
H   0.28618156  2.86480217  1.82139512
H  -1.29061556  2.20553884  2.31289482
H  -1.19337770  3.42431455  1.02696690
H   1.29093748  2.21578493 -0.44197185
H  -0.18000933  2.82865452 -1.21785006
H   0.36458687  1.17307106 -1.54473848
H  -3.17408972 -2.25284721  0.02748887
H  -5.14693062 -2.11659719 -1.52048086
H  -5.93240997 -0.68752299 -1.75339481
H  -5.93821631 -1.40000846 -0.26885379
H  -4.91827610  1.38875975 -1.44425801
H  -2.87097204  2.64854294 -0.81299530
N   4.24821629 -0.25464277 -0.56480529
C   4.28222810  1.08473633  0.08961146
C   5.49260894 -0.45155191 -1.35935935
C   4.14598111 -1.31577246  0.47754307
C   3.06168248 -0.33295911 -1.46297605
H   5.55113509  0.33008103 -2.11516919
H   5.15514216  1.13347544  0.73849197
H   4.34549069  1.84824670 -0.68408845
H   3.37153425  1.21033257  0.67230388
H   2.17089492 -0.18837453 -0.86008942
H   3.13943858  0.44943959 -2.21603516
H   3.04361388 -1.31389702 -1.93489054
H   5.01668738 -1.25176468  1.12782046
H   3.23457264 -1.15370056  1.05042449
H   4.11554843 -2.28611205 -0.01510842
H   6.34864679 -0.39116374 -0.68946888
H   5.45455729 -1.43087854 -1.83315163

