34
Total Energy                               R     -9.622858635762441E+02
C  -1.71882564 -1.11637760 -0.72866772
C  -1.06821948 -2.45124533 -0.36129830
C  -2.97953695 -1.30600441 -1.57612037
N  -2.13006290 -0.43978043  0.54875562
O  -2.89468078 -0.90235908  1.30921367
C  -1.46126933  0.89105704  0.75729089
C  -2.55801676  1.95082261  0.86993163
C  -0.63826917  0.77582320  2.04486410
C  -0.63452086  0.98151976 -0.50347138
C   0.20766499  2.18986628 -0.75079996
N   1.02046626  2.05490542 -1.95425956
C  -0.77001467 -0.09260457 -1.27169956
H  -1.79425358 -3.11428062  0.11223099
H  -0.21101837 -2.30353922  0.29611645
H  -0.72317937 -2.91014767 -1.28936662
H  -3.67370497 -1.99008907 -1.08509257
H  -2.66903154 -1.73994012 -2.52790756
H  -3.47260873 -0.35170642 -1.76890648
H  -3.19676111  1.74744187  1.73086846
H  -3.16143312  1.99130527 -0.03844983
H  -2.07247794  2.91678186  1.01612849
H  -1.29503354  0.57705030  2.89339402
H  -0.13581363  1.72987895  2.20758913
H   0.11262178 -0.01072714  1.96246296
H   0.80365450  2.38640617  0.14925900
H  -0.45535494  3.05288224 -0.86901678
H   1.70835553  1.32314509 -1.79887846
H   1.54295367  2.91413543 -2.08122121
H  -0.27198344 -0.26615666 -2.21589931
B   2.91671737 -0.51097644  0.29022626
F   2.70999233 -0.47066261 -1.10800907
F   1.99107773 -1.39701282  0.87649086
F   4.22729669 -0.95845726  0.55383437
F   2.74187233  0.77927689  0.82659498

