33
Total Energy                               R     -1.036336822747107E+03
C  -1.53380530 -1.33971357 -0.78430001
C  -0.68387605 -2.59745978 -0.60581517
C  -2.83788620 -1.62197862 -1.54177329
N  -1.91344135 -0.82000753  0.57498595
O  -2.46282971 -1.46988648  1.38392550
C  -1.53363326  0.62212671  0.79477037
C  -2.84944974  1.40167362  0.92514201
C  -0.68358008  0.70099258  2.06292556
C  -0.76860495  0.87935183 -0.48089354
C  -0.12708847  2.20429026 -0.74394588
O  -0.65394865  3.24599682 -0.37119757
N   1.02230038  2.14636176 -1.43806500
C  -0.77871162 -0.15876371 -1.30876790
H  -1.27070345 -3.39592742 -0.14871570
H   0.20321934 -2.39112998 -0.00632952
H  -0.37023551 -2.91999006 -1.60010711
H  -3.38374424 -2.44002503 -1.06849652
H  -2.56442140 -1.91955601 -2.55538528
H  -3.46869905 -0.73312996 -1.59283327
H  -3.40129443  1.06361797  1.80432969
H  -3.46585537  1.28976648  0.03158840
H  -2.59171178  2.45290539  1.04555120
H  -1.26930460  0.41327936  2.93747284
H  -0.36850236  1.73860509  2.18406062
H   0.20294292  0.07083188  1.98149143
H   1.54066958  1.28065130 -1.51219877
H   1.52125738  3.00589989 -1.61352317
H  -0.31262574 -0.20335685 -2.28448766
B   2.95256012 -0.52065236  0.26128719
F   2.49309904 -0.41952751 -1.07911643
F   2.06929337 -1.33469922  0.99700212
F   4.23782288 -1.09284616  0.26378307
F   2.99847757  0.76422195  0.83242277

