45
Total Energy                               R     -8.261202841829327E+02
C  -0.79732401  1.60960603 -0.02735179
C  -0.95534323  2.86498772  0.83069166
C   0.31288689  1.78855070 -1.06451329
N  -0.52130540  0.43606533  0.82678510
O   0.50167173  0.35876344  1.56627639
C  -1.47931798 -0.68532614  0.66795132
C  -0.75635136 -1.88755312  0.05550063
C  -2.08686040 -1.04178339  2.02385033
C  -2.47736049 -0.03706798 -0.27210745
C  -3.71485720 -0.74342124 -0.71522502
O  -3.77804383 -1.96802471 -0.75581921
N  -4.74724455  0.04760734 -1.07423371
C  -2.09400585  1.18155708 -0.64847934
H  -0.01798700  3.08793198  1.34633687
H  -1.74351772  2.73355783  1.57634147
H  -1.21154555  3.71926235  0.19889242
H   1.25588100  2.02338521 -0.56576693
H   0.06688631  2.61515708 -1.73605619
H   0.44304231  0.88251123 -1.66136683
H   0.06277122 -2.19460085  0.71068887
H  -0.34603502 -1.63868095 -0.92659084
H  -1.44870215 -2.72163810 -0.05858204
H  -1.30521048 -1.38500798  2.70588653
H  -2.81680656 -1.84569264  1.90714124
H  -2.58546572 -0.17733547  2.46998083
H  -4.73642365  1.04486853 -0.93685193
H  -5.60396417 -0.37727649 -1.39446627
H  -2.61943007  1.83622408 -1.33520452
N   3.95473266 -0.38204437 -0.28259289
C   3.84637784  0.54751493  0.87888061
C   5.19213557 -1.20236821 -0.15318275
C   2.76157910 -1.27589669 -0.30977662
C   4.01215547  0.40491677 -1.54742291
H   6.05283716 -0.53595070 -0.12922978
H   3.83171948 -0.04082029  1.79456929
H   4.70695478  1.21458439  0.87250851
H   2.92078485  1.11228482  0.78830098
H   3.10703949  1.00382287 -1.62755850
H   4.88861754  1.05007480 -1.51798402
H   4.08139299 -0.28671306 -2.38552908
H   2.73049568 -1.84375590  0.61810782
H   1.87157724 -0.65883150 -0.39816051
H   2.84757369 -1.94808944 -1.16195505
H   5.13525894 -1.77721797  0.76965545
H   5.25766727 -1.87166065 -1.00936708

