40
Total Energy                               R     -1.159399680842349E+03
C   2.48878733 -1.28485521 -0.11694837
C   2.75337067 -2.10012809 -1.39439487
C   3.19162730 -1.94226330  1.08234276
N   3.07652048  0.05595350 -0.34458211
O   4.31562183  0.07489941 -0.62193619
C   2.46224885  1.30712812  0.16341056
C   2.69174843  1.40970258  1.68475795
C   3.14479174  2.47958828 -0.53879707
C   0.96489324  1.26369061 -0.09180243
C   0.26415688  0.02252192 -0.00955947
C   0.98593704 -1.20089648  0.09504867
C   0.30425141 -2.37621266  0.30372156
C  -1.09158262 -2.41242566  0.27426889
C  -1.79783118 -1.26148891  0.06101405
N  -3.21807634 -1.44920314 -0.24418736
O  -3.84286660 -2.26585261  0.40118068
O  -3.67855293 -0.81670795 -1.17997471
C  -1.16819471  0.00781542 -0.01427811
C  -1.82122282  1.26821227 -0.08300703
N  -3.25065557  1.42454689  0.20127904
O  -3.70980840  0.78446107  1.13230061
O  -3.88373208  2.22479743 -0.45595759
C  -1.13544897  2.43540496 -0.25642777
C   0.26465803  2.42953620 -0.26744813
H   3.82534302 -2.14428874 -1.58818955
H   2.25700994 -1.64215443 -2.25385954
H   2.38097243 -3.11859504 -1.27757555
H   4.27104469 -1.91048252  0.92541391
H   2.89372918 -2.98817380  1.17189427
H   2.95484653 -1.43525238  2.01891537
H   3.75970529  1.33016234  1.90255796
H   2.16074615  0.62587226  2.22814121
H   2.33157056  2.37618786  2.04458792
H   4.22031367  2.42328609 -0.38313892
H   2.80141526  3.42580371 -0.12154405
H   2.94632321  2.47174370 -1.61320128
H   0.83410801 -3.31394651  0.41331980
H  -1.60968470 -3.36081840  0.34287275
H  -1.67091910  3.37524255 -0.30909447
H   0.77051764  3.38157354 -0.34497619

