40
Total Energy                               R     -1.159204574201142E+03
C   2.47559216 -1.28825394 -0.20429091
C   2.66435729 -1.92800863 -1.58999176
C   3.30722407 -2.03699091  0.85733034
N   3.08996220  0.08760922 -0.29408029
O   4.13846244  0.18765395 -0.82009838
C   2.44315978  1.30712309  0.30384542
C   2.58608136  1.14624512  1.83772517
C   3.20116549  2.53133335 -0.17532311
C   0.97004374  1.25966787 -0.07298963
C   0.27217151  0.02151955  0.00885716
C   0.99436530 -1.19834770  0.11557526
C   0.32748419 -2.37361945  0.34442134
C  -1.07226880 -2.40567609  0.34546640
C  -1.77915468 -1.26109369  0.11251425
N  -3.20794524 -1.45437913 -0.16283049
O  -3.83002542 -2.21784786  0.54374548
O  -3.66775949 -0.87716321 -1.13255060
C  -1.15476640  0.00777814 -0.00725523
C  -1.79776127  1.26929936 -0.13426040
N  -3.23532286  1.43738806  0.11579077
O  -3.69912697  0.85800334  1.08208069
O  -3.85963171  2.18459545 -0.60567402
C  -1.10857915  2.42681354 -0.34573518
C   0.29444745  2.42355629 -0.31528247
H   3.72235604 -2.02410274 -1.83210445
H   2.15635684 -1.34443093 -2.36039782
H   2.22650104 -2.92483178 -1.55756523
H   4.36684567 -1.98082831  0.60438488
H   3.01408943 -3.08587141  0.83404861
H   3.14432914 -1.64688242  1.86069756
H   3.63643558  1.03749208  2.11287444
H   2.00911173  0.31033751  2.23096484
H   2.19632010  2.06702507  2.27383920
H   4.25379154  2.46119911  0.09697550
H   2.79914034  3.40873334  0.32864378
H   3.11383814  2.66741648 -1.25488542
H   0.85814767 -3.31226879  0.43975962
H  -1.58795419 -3.35246100  0.44508434
H  -1.63984300  3.36437580 -0.45118629
H   0.80695233  3.37076220 -0.40695881

