39
Total Energy                               R     -9.390890851014772E+02
C   0.43780170 -1.39669676  0.01959720
C  -3.21024608 -1.29285474 -1.06000833
C   0.59646492 -1.86880548  1.48282470
N  -0.88454963 -1.71254329 -0.59076957
O   3.63430174 -0.52274525  1.14613424
C   1.92643560  0.69169263 -0.03031991
C   3.22477084 -0.03741685  0.11336643
C   1.46167687 -2.13448033 -0.85951270
C   0.66926464  0.11595286 -0.03618206
C  -0.46410534  0.99380386 -0.05024353
C  -2.07318184 -1.00544638 -0.06191578
C  -1.79707437  0.48865039 -0.03014034
C  -2.55019218 -1.44218678  1.34219993
O   3.96038674  0.00458349 -1.00062533
O  -1.11130468 -3.10810489 -0.54258922
C  -2.84774903  1.37527771  0.05516073
C  -2.65144278  2.76865669  0.07763314
C  -0.27268652  2.40777359 -0.04438471
C  -1.38545679  3.27948766  0.01147066
C   1.03880221  2.93735239 -0.07818934
C   2.10954876  2.09867332 -0.07803497
H  -3.37370013 -2.36783240 -1.13529282
H  -2.95772582 -0.91250144 -2.05382714
H  -4.15191862 -0.83881231 -0.74774987
H  -2.61336366 -2.53053261  1.40216357
H  -1.89503768 -1.08655530  2.13706965
H   0.13597233 -1.17910453  2.19119266
H   1.65160242 -1.95050915  1.74830839
H   0.13785919 -2.85242280  1.60429394
H   4.82260803 -0.40597289 -0.83731454
H   2.46335077 -2.13785539 -0.43363425
H   1.16251642 -3.17688508 -0.94923393
H   1.50499540 -1.70106798 -1.86225077
H  -3.54678404 -1.03548169  1.53427632
H  -3.86457873  1.00461092  0.10558139
H  -3.51063586  3.42851728  0.13882934
H  -1.21110292  4.35094589  0.01399014
H   1.17697068  4.01361914 -0.09244048
H   3.11796558  2.49917395 -0.09185888

