35
Total Energy                               R     -1.021253799981832E+03
C  -0.97508023  1.49072167 -0.22584595
C  -1.72491077  2.73890753  0.25024337
C   0.09314836  1.82258019 -1.26523341
N  -0.28819164  0.90296443  0.98463794
O   0.55186106  1.46786523  1.57438656
C  -0.78927013 -0.46537555  1.38261888
C  -1.42216757 -0.32263970  2.76947259
C   0.40028616 -1.42319241  1.38472368
C  -1.78052940 -0.71691829  0.28173076
C  -1.87729137  0.34914944 -0.60031108
C  -2.73865356  0.29898917 -1.68621521
C  -3.50533436 -0.84644027 -1.87266760
C  -3.40832817 -1.91830923 -0.98540179
C  -2.54237597 -1.86192609  0.10158855
H  -1.02149520  3.48945498  0.61418016
H  -2.44534422  2.49415334  1.03235876
H  -2.26141213  3.14105124 -0.61060319
H   0.76954760  2.59076937 -0.88801053
H  -0.42340792  2.20936610 -2.14549422
H   0.65991147  0.93524775 -1.54737507
H  -0.66709325 -0.04382466  3.50610217
H  -1.83793691 -1.29551354  3.03646417
H  -2.22637031  0.41502127  2.76319603
H   1.14563416 -1.11005807  2.11681191
H   0.85273677 -1.48844640  0.39577934
H   0.02148124 -2.40731836  1.66595111
H  -2.81117553  1.13436415 -2.37454601
H  -4.18412029 -0.90582631 -2.71636978
H  -4.01198873 -2.80505411 -1.14463548
H  -2.46335957 -2.69424706  0.79290239
B   3.41783089 -0.40443951 -0.51618156
F   2.92594590  0.64960661  0.28060941
F   4.57112715  0.02622911 -1.20445839
F   3.74198382 -1.50356223  0.30579022
F   2.43213574 -0.79159502 -1.44989443

