47
Total Energy                               R     -8.110383171415681E+02
C  -0.98621198  1.22860737 -0.53044862
C  -0.09167332  1.94285650  0.48557607
C  -1.23672354  2.10820490 -1.75249565
N  -0.36007010 -0.05057279 -0.94628037
O   0.75073760 -0.08853982 -1.55586874
C  -1.04049720 -1.28179162 -0.47436554
C  -0.17562569 -1.98962295  0.57145939
C  -1.33101254 -2.20190250 -1.65715383
C  -2.28401199 -0.68021557  0.12958133
C  -2.25434861  0.70866535  0.09759224
C  -3.30495436  1.45248025  0.61705604
C  -4.39160883  0.78182299  1.17186438
C  -4.42111288 -0.61238841  1.20470901
C  -3.36466690 -1.35376171  0.68244396
H   0.87593205  2.18688029  0.03944748
H   0.07296268  1.32215859  1.36916331
H  -0.57057728  2.87329753  0.80002662
H  -0.29096310  2.38248024 -2.22603526
H  -1.74257451  3.02612579 -1.44431399
H  -1.86414888  1.59491897 -2.48490734
H   0.78215580 -2.28879017  0.13737112
H  -0.69075664 -2.88751536  0.92122294
H   0.01240774 -1.34162940  1.43049315
H  -0.39873844 -2.53851098 -2.11700575
H  -1.93543567 -1.69359680 -2.41200740
H  -1.87704238 -3.08196453 -1.30962269
H  -3.28102034  2.53754680  0.59174699
H  -5.22165453  1.34781093  1.58151289
H  -5.27387956 -1.12270286  1.63999870
H  -3.38692952 -2.43887073  0.70762584
N   3.96940615  0.01328095  0.43260685
C   2.82040567 -0.06082511  1.37905062
C   5.24689071  0.04843251  1.19804361
C   3.95145100 -1.18366417 -0.45605039
C   3.84936446  1.24895259 -0.39346416
H   5.24500617  0.92706299  1.84077850
H   2.91228388 -0.96938819  1.97175967
H   2.83968490  0.81553584  2.02456842
H   1.90398054 -0.08138088  0.79814203
H   2.91768883  1.20372693 -0.95448971
H   3.85034059  2.11307642  0.26867381
H   4.69781657  1.29583688 -1.07412488
H   4.03399576 -2.07697882  0.16052632
H   3.01443420 -1.19238138 -1.00975936
H   4.79436716 -1.12178097 -1.14225283
H   5.31938384 -0.85606109  1.79945712
H   6.07604316  0.09935289  0.49427827

