47
Total Energy                               R     -8.111528148562138E+02
C   1.45535133 -0.90255799  1.02575678
C   0.47693267 -1.95013135  1.55881151
C   2.67465310 -0.85464857  1.96457688
N   1.74730096 -1.18844279 -0.40610018
O   2.74360570 -2.16177501 -0.60600193
C   1.99612994  0.08783413 -1.13061372
C   1.50518208 -0.04753799 -2.57263442
C   3.45650755  0.57292438 -1.15472976
C   1.14776244  1.03580148 -0.31971322
C   0.83618601  0.46955470  0.91115219
C   0.05965644  1.16029508  1.83023943
C  -0.40734825  2.43215623  1.49905533
C  -0.09455425  2.99961669  0.26500324
C   0.68856433  2.30159684 -0.65432665
H   0.94301210 -2.94030319  1.54903116
H  -0.42639845 -1.99331386  0.94494444
H   0.18367996 -1.73093732  2.59029140
H   3.17332537 -1.82608750  2.00747605
H   2.34442893 -0.60249997  2.97694926
H   3.40810446 -0.10678846  1.65962831
H   2.06379652 -0.83479656 -3.08828463
H   1.65040279  0.88309536 -3.12997719
H   0.44269995 -0.30402984 -2.60175750
H   4.09349400 -0.12939244 -1.69788712
H   3.86983808  0.70623701 -0.15394500
H   3.51008863  1.53809026 -1.66762187
H  -0.19473127  0.71724128  2.78878672
H  -1.02331043  2.98149720  2.20412194
H  -0.46764844  3.98815485  0.01616050
H   0.92485575  2.74268420 -1.61850669
N  -3.29002090 -0.49536822 -0.33537061
C  -3.42366415 -1.96926929 -0.51082671
C  -2.08061509 -0.01844032 -1.06585430
C  -4.49792281  0.18564433 -0.88030810
C  -3.15493843 -0.17966732  1.11543367
H  -1.21105631 -0.54563927 -0.68179399
H  -3.51607643 -2.18776505 -1.57342175
H  -2.53559654 -2.45033251 -0.10442345
H  -4.31154865 -2.30611827  0.02180391
H  -4.04572491 -0.53433183  1.63152919
H  -2.27042066 -0.68182597  1.50206188
H  -3.05539387  0.89800534  1.23089645
H  -4.58904075 -0.05727131 -1.93750771
H  -5.37360566 -0.16529864 -0.33681850
H  -4.37989624  1.26000364 -0.75030783
H  -2.21095318 -0.22905040 -2.12608364
H  -1.97342810  1.05262423 -0.90316622

