52
Total Energy                               R     -1.075207407929727E+03
C   0.58674824  1.09635372 -0.03081005
C   0.08661185  1.97530815 -1.18492062
C   0.24543790  1.85551045  1.26197586
N  -0.12980795 -0.20617893 -0.12788257
O   0.06147003 -0.72654578 -1.42877681
C   0.27921684 -1.26765771  0.82423442
C  -0.00246139 -0.92420779  2.30051887
C  -0.60588412 -2.49190713  0.55104261
C   1.81525945 -1.55763788  0.68159966
C   2.18893408 -2.40237850 -0.51232565
O   1.85514279 -3.56554271 -0.65979941
O   3.04257399 -1.82850407 -1.37504342
C   2.61396103 -0.25214742  0.79329121
C   2.12956556  0.83891484 -0.16862329
C   2.93063613  2.09213147  0.02755584
O   3.37921811  2.49085724  1.08608608
O   3.12798265  2.77360751 -1.11116251
H  -1.00596075  2.03199195 -1.15398871
H   0.38079633  1.58586316 -2.15784018
H   0.47558931  2.99154396 -1.09005230
H  -0.81571349  1.74474246  1.49552907
H   0.44208020  2.92129850  1.12237203
H   0.81888159  1.54328661  2.13116410
H  -0.98237378 -0.45433374  2.40499743
H   0.73479907 -0.27962649  2.77155002
H  -0.01864195 -1.85382771  2.87511575
H  -1.64010249 -2.23954439  0.80653662
H  -0.30020052 -3.32966994  1.18292084
H  -0.58161697 -2.81403328 -0.48524479
H   2.08419095 -2.19372430  1.53222966
H   3.25241734 -2.46516042 -2.07169126
H   3.67401541 -0.44758150  0.61704291
H   2.54486169  0.10870371  1.82054016
H   2.29196088  0.51439762 -1.19605045
H   3.61730293  3.58551353 -0.91697886
N  -4.17536021  0.31477651 -0.19111669
C  -3.21201041 -0.29600991 -1.15477272
C  -4.08918620 -0.40417264  1.11080548
C  -3.82289832  1.74841455  0.01213038
C  -5.56145362  0.21394900 -0.72555055
H  -4.33975345 -1.45130497  0.94965025
H  -2.20677119 -0.21493396 -0.73574088
H  -3.48538594 -1.34056536 -1.29970573
H  -3.28265303  0.24260162 -2.09906599
H  -5.60893860  0.74272051 -1.67589828
H  -5.80431871 -0.83757349 -0.86936029
H  -6.24842513  0.66386736 -0.01050543
H  -2.81219594  1.80580033  0.41166705
H  -3.87719374  2.26152243 -0.94660450
H  -4.53044426  2.18702357  0.71398007
H  -3.07332834 -0.31502453  1.49100160
H  -4.79266282  0.04808706  1.80808479

