52
Total Energy                               R     -1.075094108651639E+03
C   0.54377586  0.94303636 -0.30069663
C   0.15230288  1.56189790 -1.64303607
C  -0.30720852  1.56826716  0.81400156
N   0.25509821 -0.52617063 -0.38843714
O  -0.83891721 -0.84479261 -0.95824023
C   0.84259647 -1.55694883  0.51447580
C   0.10513448 -1.54097369  1.86313088
C   0.64455326 -2.93623877 -0.11817868
C   2.34405149 -1.27199744  0.74668069
C   3.25390212 -1.79680783 -0.34574705
O   4.19158220 -2.53848995 -0.13537760
O   2.95951455 -1.35690190 -1.56877978
C   2.62066600  0.20945487  1.02700626
C   2.07192393  1.12196070 -0.06737993
C   2.41385870  2.55796383  0.26874520
O   2.41652068  3.02887180  1.38588202
O   2.74626963  3.27617132 -0.80650585
H  -0.92160945  1.48646882 -1.81184943
H   0.67497367  1.07429800 -2.46925490
H   0.41597261  2.62029697 -1.64630429
H  -1.33524221  1.21135905  0.73795804
H  -0.32311026  2.65435644  0.69883210
H   0.06545941  1.34185566  1.81264248
H  -0.97275967 -1.59432999  1.69546937
H   0.32204168 -0.65485113  2.45841489
H   0.40423302 -2.41830747  2.44140707
H  -0.40159559 -3.23925535 -0.07989470
H   1.22539625 -3.66609885  0.45158133
H   0.97296497 -2.96702363 -1.15806795
H   2.63133195 -1.83820230  1.63376337
H   3.58430827 -1.72719859 -2.20870269
H   3.69730882  0.36691311  1.12826958
H   2.17702240  0.46632140  1.99025347
H   2.56727523  0.89491447 -1.01131399
H   2.94327143  4.18587705 -0.53991943
N  -4.63714765 -0.00549533 -0.03098589
C  -3.73724357 -0.92029690  0.72854929
C  -5.11738385  1.07629703  0.87494528
C  -3.89359991  0.60163528 -1.17258501
C  -5.80234329 -0.77568403 -0.55149905
H  -5.65985254  0.62460861  1.70344271
H  -2.90017730 -0.34280179  1.11405669
H  -4.30183648 -1.35771655  1.55054402
H  -3.38213328 -1.70052512  0.05846169
H  -5.43456947 -1.56196087 -1.20850036
H  -6.33855803 -1.20999840  0.29045093
H  -6.45191827 -0.09756030 -1.10222436
H  -3.05803905  1.17614514 -0.77929227
H  -3.53433504 -0.19478472 -1.82098369
H  -4.57301935  1.25428193 -1.71853529
H  -4.25476596  1.62750568  1.24594702
H  -5.77336660  1.73881136  0.31300606

