52
Total Energy                               R     -1.197797597280288E+03
C   0.15257804  1.19277345  1.42441519
C  -1.09844263  0.58272369  2.05544133
C   1.38021022  0.90752717  2.28430671
N   0.34298433  0.61679397  0.07197072
O   0.63336029 -0.60576382 -0.10563054
C   0.36361294  1.60718392 -1.02611297
C   1.81657870  2.00474807 -1.31574252
C  -0.27852847  1.03987610 -2.28175782
C  -0.40063437  2.77135827 -0.37729996
O  -1.79182914  2.58346292 -0.58891482
C  -2.58480687  3.68790353 -0.20147430
C  -0.00963329  2.68736621  1.10484572
H  -0.98630129 -0.49946371  2.15512546
H  -1.98820964  0.79086774  1.45794080
H  -1.24591391  1.00321697  3.05344272
H   1.50979918 -0.16629793  2.43975030
H   1.25690589  1.38203373  3.26144297
H   2.28487593  1.30526622  1.81957598
H   2.38368579  1.12445987 -1.62518179
H   2.30756308  2.43865906 -0.44222142
H   1.84376579  2.73602583 -2.12725711
H   0.32705999  0.22174022 -2.67720845
H  -0.33193742  1.82070070 -3.04416600
H  -1.28665898  0.67119688 -2.09821469
H  -0.09999330  3.72632040 -0.82238083
H  -3.60021349  3.48524312 -0.54298027
H  -2.22508128  4.61153358 -0.67062178
H  -2.60060671  3.82316126  0.88516876
H  -0.74692641  3.15966715  1.75391797
H   0.93573614  3.21268424  1.25519874
N  -3.61315084 -2.18229293 -0.09812636
C  -2.75629166 -1.14578994 -0.74227714
C  -2.99183549 -3.52328176 -0.28988386
C  -3.73303683 -1.89673617  1.35941955
C  -4.96648335 -2.16602048 -0.72137340
H  -2.91749021 -3.72464713 -1.35717457
H  -1.76859826 -1.17605770 -0.28709279
H  -2.68601082 -1.36992933 -1.80534993
H  -3.21493166 -0.17012558 -0.59143757
H  -5.40863926 -1.18303349 -0.56808543
H  -4.86348360 -2.37014567 -1.78568068
H  -5.57899542 -2.93221144 -0.24931855
H  -2.74255027 -1.94317215  1.80639860
H  -4.15933239 -0.90349571  1.48819273
H  -4.38247109 -2.64640735  1.80861443
H  -2.00087678 -3.51613891  0.16049976
H  -3.61869325 -4.27189380  0.19156320
B   4.10482279 -1.46200819 -0.11529151
F   3.31994688 -2.24454817  0.75675582
F   4.16651717 -0.13765355  0.36351677
F   5.41015149 -1.99847738 -0.17762435
F   3.53445163 -1.47383294 -1.40504712

