52
Total Energy                               R     -1.197905504200296E+03
C   2.39238562 -0.29149314  1.44545596
C   1.03471978  0.38512460  1.69938898
C   2.95014705 -0.76072983  2.78623482
N   2.38149285 -1.41708569  0.48948705
O   1.38183208 -2.37817398  0.74967869
C   2.34744070 -0.87602492 -0.89973676
C   3.20329478 -1.78454350 -1.78741032
C   0.95017276 -0.80033958 -1.52411495
C   3.02415718  0.51840923 -0.75997099
O   2.16282131  1.55541013 -1.22673835
C   2.84120299  2.77153263 -1.45883490
C   3.35638549  0.65660583  0.73172063
H   0.31591049 -0.32234349  2.12012236
H   0.60084874  0.81689500  0.79786171
H   1.15841689  1.19732386  2.42284427
H   2.27235228 -1.47319211  3.26672786
H   3.07986537  0.08496204  3.46951634
H   3.92189462 -1.24698938  2.65812784
H   2.80987924 -2.80621949 -1.77831514
H   4.23788159 -1.81582433 -1.43276803
H   3.20801207 -1.43409517 -2.82511086
H   0.53681190 -1.80616656 -1.61764419
H   1.00762599 -0.37135199 -2.52759452
H   0.25075799 -0.19965779 -0.94573763
H   3.93526801  0.55711358 -1.36914711
H   2.10516834  3.48596959 -1.82979975
H   3.62926792  2.64373545 -2.21204775
H   3.29197194  3.17397219 -0.54424795
H   3.26404947  1.68813360  1.07967348
H   4.38885259  0.34056358  0.90890974
N  -2.90419646 -1.98775769 -0.21883037
C  -2.23296453 -1.21111590  0.86228286
C  -4.32362291 -2.23792412  0.15675711
C  -2.85901201 -1.21073042 -1.49053425
C  -2.19882893 -3.28735398 -0.40381771
H  -4.34628126 -2.79404972  1.09233939
H  -2.77462105 -0.28032076  1.00960474
H  -2.24552905 -1.80462484  1.77510486
H  -1.20812082 -1.01428220  0.55927279
H  -1.15748857 -3.08731589 -0.65057622
H  -2.25988966 -3.85288042  0.52447435
H  -2.68084847 -3.83601748 -1.21116382
H  -3.35886679 -0.25716748 -1.33399863
H  -1.81853653 -1.05017603 -1.76534693
H  -3.36821706 -1.78231810 -2.26485319
H  -4.82579054 -1.27958616  0.27859847
H  -4.79997203 -2.81395752 -0.63479419
B  -2.35775310  2.45132040  0.21325239
F  -1.94395273  2.15462452  1.52804925
F  -1.44936880  1.89528487 -0.70839053
F  -3.64345221  1.90740428 -0.00464910
F  -2.40690159  3.85055066  0.03955299

