52
Total Energy                               R     -1.197613986123803E+03
C   0.55197415  1.54800269  1.33991104
C  -0.56375833  1.12652443  2.30025218
C   1.92466216  1.43484597  1.99668160
N   0.51997372  0.57803449  0.18207365
O   0.67038302 -0.57873468  0.31354369
C   0.29290130  1.23355162 -1.14405364
C   1.70644825  1.49836506 -1.70050634
C  -0.49457478  0.32051282 -2.06130804
C  -0.38022218  2.54061012 -0.70625112
O  -1.76636640  2.30255075 -0.59293281
C  -2.54017374  3.48271352 -0.46255885
C   0.28378777  2.88108432  0.63824592
H  -0.42587037  0.09527610  2.62928188
H  -1.54650877  1.24471155  1.84487990
H  -0.50168498  1.78471182  3.16830582
H   2.07360742  0.44170824  2.42259294
H   1.96033935  2.17151658  2.80127135
H   2.72223184  1.65368116  1.28604655
H   2.21425315  0.55046026 -1.87633948
H   2.31556089  2.11455038 -1.03978078
H   1.57675964  2.02081186 -2.64920510
H   0.08118889 -0.57679400 -2.29184474
H  -0.67700469  0.86145029 -2.99131775
H  -1.45230917  0.03754354 -1.62998017
H  -0.19379524  3.31666899 -1.45418071
H  -3.58538493  3.17569371 -0.47752079
H  -2.34888329  4.16393059 -1.29918683
H  -2.33536431  4.00215324  0.47895904
H  -0.35462298  3.51504776  1.25133221
H   1.21594990  3.41958272  0.46534650
N  -3.77794636 -1.96225559  0.08815652
C  -2.58163357 -1.28017377  0.65806703
C  -3.66027977 -3.43303074  0.30086063
C  -5.00476764 -1.45653150  0.76680023
C  -3.86129492 -1.67433793 -1.37242405
H  -2.76691680 -3.78912934 -0.20941048
H  -2.54816957 -1.46868370  1.72946460
H  -1.69281345 -1.68290293  0.17647603
H  -2.66799344 -0.21334112  0.46282984
H  -3.95765380 -0.59877587 -1.51114362
H  -2.95460815 -2.03723598 -1.85299910
H  -4.73273142 -2.18503992 -1.77904107
H  -4.93234694 -1.67926584  1.82989554
H  -5.07057637 -0.38107317  0.61121910
H  -5.87286541 -1.95275718  0.33658203
H  -3.58449784 -3.62610276  1.36969058
H  -4.54519423 -3.91805988 -0.10708715
B   3.95331374 -1.55745305 -0.11354535
F   3.33417188 -1.95781570  1.08858444
F   4.28986024 -0.19065660 -0.03776063
F   5.12456604 -2.31843687 -0.31439350
F   3.06880180 -1.76718773 -1.19267552

