60
Total Energy                               R     -1.444660884792280E+03
C   0.99970349 -1.14720820  0.12337453
C   0.70943258 -2.54065543  0.69029214
C   0.18694913 -0.92831581 -1.16489252
N   0.54919990 -0.16037493  1.14330206
O  -0.60389814 -0.36619879  1.64608294
C   1.06880528  1.22593384  1.29402356
C   0.13180639  2.18604380  0.54366364
C   1.04261960  1.54173418  2.79687373
C   2.48750087  1.34449248  0.76435489
C   3.13627250  0.26932318  0.10200676
C   2.47761395 -0.96192247 -0.17998733
C   3.15616723 -1.96238510 -0.82502509
C   4.51204425 -1.82541814 -1.21850405
N   5.12042145 -2.86827340 -1.91082027
C   5.16120155 -0.64088230 -0.96452080
C   4.49157227  0.42265911 -0.31849750
C   5.15120805  1.65596231 -0.08947955
C   4.49211360  2.69009068  0.51726799
C   3.16033325  2.53191123  0.94635687
H  -0.34607747 -2.63633299  0.93827732
H   1.30412912 -2.73139811  1.58679461
H   0.94087303 -3.30632814 -0.04941685
H  -0.88010990 -1.01382568 -0.95304346
H   0.45574679 -1.69418469 -1.89567627
H   0.39130035  0.04996589 -1.60402774
H  -0.89158840  2.05962516  0.89794947
H   0.15983696  2.01220903 -0.53322810
H   0.43347542  3.21810780  0.73245104
H   0.03052386  1.44363720  3.19005976
H   1.37215381  2.56611002  2.97105620
H   1.70343243  0.86753002  3.34718957
H   2.65828353 -2.89375958 -1.07198469
H   4.74589475 -3.78331527 -1.70359952
H   6.12965098 -2.86386212 -1.86997231
H   6.19595043 -0.50714281 -1.26770893
H   6.18216833  1.76667227 -0.41150859
H   4.99401730  3.63812087  0.68131269
H   2.67165048  3.36727609  1.43484279
N  -3.74193192  2.08196442 -1.25276155
C  -2.76694604  0.95511322 -1.19368777
C  -5.04820366  1.64218030 -0.68630040
C  -3.22090493  3.23432960 -0.46389000
C  -3.93107986  2.49643900 -2.67141915
H  -5.42689613  0.81577418 -1.28380826
H  -2.62035721  0.67159077 -0.15384264
H  -3.16895453  0.11902862 -1.76233638
H  -1.82810853  1.28962411 -1.62949230
H  -2.97279427  2.82336504 -3.07115742
H  -4.30356149  1.64414259 -3.23715527
H  -4.65064833  3.31302276 -2.70387619
H  -3.11289022  2.92691991  0.57438291
H  -2.25578020  3.53051294 -0.87166654
H  -3.93068121  4.05661100 -0.54035284
H  -4.89338058  1.32296674  0.34238579
H  -5.74173472  2.48076572 -0.72012868
B  -4.05702752 -2.14793069  0.57548602
F  -2.87063600 -2.41266497 -0.13749049
F  -4.46511025 -3.31530975  1.25656091
F  -3.83094159 -1.11652770  1.51001605
F  -5.06801043 -1.75482548 -0.32674361

