29
Total Energy                               R     -4.945031894935651E+02
C  -1.66042810  1.31518710 -0.00450915
C  -2.26802862  2.35404378 -0.94649549
C  -1.94550448  1.71553445  1.44931034
N  -2.30006020  0.00000000 -0.29730118
O  -3.56921369  0.00000000 -0.39828737
C  -1.66042810 -1.31518710 -0.00450914
C  -1.94550450 -1.71553444  1.44931034
C  -2.26802862 -2.35404378 -0.94649549
C  -0.14764191 -1.24140099 -0.28114554
C   0.47728639 -0.00000000  0.32116397
I   2.63350148 -0.00000000 -0.03709411
C  -0.14764191  1.24140099 -0.28114555
H  -3.32163509  2.52469113 -0.72341299
H  -2.17845163  2.03631461 -1.98866723
H  -1.73325351  3.30015232 -0.82800515
H  -3.01855449  1.66609560  1.64899237
H  -1.61371695  2.74418456  1.61449149
H  -1.43178162  1.07772397  2.17037040
H  -3.01855452 -1.66609566  1.64899234
H  -1.43178171 -1.07772390  2.17037041
H  -1.61371690 -2.74418453  1.61449152
H  -3.32163510 -2.52469111 -0.72341301
H  -1.73325353 -3.30015233 -0.82800513
H  -2.17845159 -2.03631462 -1.98866723
H   0.01588286 -1.23470997 -1.36369480
H   0.30601687 -2.15198671  0.11605231
H   0.42505871 -0.00000000  1.40823677
H   0.01588286  1.23470996 -1.36369481
H   0.30601688  2.15198671  0.11605230

