29
Total Energy                               R     -4.945913237423232E+02
C   1.67179937 -1.26263918 -0.03458126
C   2.23762093 -2.39730011 -0.89699997
C   1.99685749 -1.59038568  1.43567863
N   2.26534672 -0.00000008 -0.54009833
O   3.65324775 -0.00000017 -0.33286792
C   1.67179956  1.26263911 -0.03458124
C   1.99685830  1.59038594  1.43567846
C   2.23762093  2.39729980 -0.89700036
C   0.14549276  1.24503721 -0.26586618
C  -0.47875836 -0.00000007  0.32372134
I  -2.65174743  0.00000005 -0.02895906
C   0.14549268 -1.24503715 -0.26586662
H   3.30646531 -2.51867008 -0.71358024
H   2.09695358 -2.17789084 -1.96042834
H   1.73395404 -3.34383058 -0.67131401
H   3.04572160 -1.34475385  1.61807894
H   1.84797724 -2.65705130  1.63533407
H   1.38346180 -1.03882929  2.15055653
H   3.04572250  1.34475422  1.61807836
H   1.38346299  1.03882969  2.15055678
H   1.84797809  2.65705159  1.63533374
H   3.30646540  2.51866969 -0.71358105
H   1.73395422  3.34383036 -0.67131438
H   2.09695317  2.17789035 -1.96042864
H  -0.04882182  1.26804692 -1.34397251
H  -0.29035116  2.14961076  0.16845375
H  -0.44022097 -0.00000031  1.41111231
H  -0.04882169 -1.26804642 -1.34397301
H  -0.29035139 -2.14961083  0.16845288

