29
Total Energy                               R     -4.943163011968323E+02
C  -1.65883903  1.34018703  0.03288904
C  -2.29461738  2.38340560 -0.87444788
C  -1.99290164  1.64860898  1.50465415
N  -2.30311812 -0.00253133 -0.27940073
O  -3.38145767 -0.00408158 -0.75614533
C  -1.65215156 -1.34352799  0.02927783
C  -1.95005989 -1.64548847  1.50955017
C  -2.30340637 -2.39114900 -0.86056136
C  -0.14335060 -1.24325646 -0.25961944
C   0.48664114 -0.00373251  0.34719754
I   2.62165542  0.00195221 -0.05522953
C  -0.14494743  1.24656719 -0.23500798
H  -3.34117024  2.56048731 -0.62631406
H  -2.21065259  2.10440878 -1.92682034
H  -1.74681880  3.31502384 -0.72299840
H  -3.06540390  1.56432217  1.68802333
H  -1.69510025  2.68539846  1.67074983
H  -1.45524665  1.02269593  2.21251973
H  -3.01173805 -1.52367119  1.73156370
H  -1.36185668 -1.04167588  2.19670500
H  -1.68403745 -2.69262470  1.66377200
H  -3.34583478 -2.56480130 -0.59265956
H  -1.75466159 -3.32262675 -0.71228620
H  -2.23790776 -2.11893668 -1.91604015
H   0.00546055 -1.24409682 -1.34296311
H   0.29831611 -2.15760163  0.13993251
H   0.44794281 -0.01346797  1.43396981
H   0.01527775  1.27132032 -1.31643988
H   0.29097905  2.15306457  0.18782618

