54
Total Energy                               R     -1.178230298190704E+03
C   0.08318998  1.34467216 -1.03728685
C   0.02719029  0.94131687 -2.50326112
C  -0.89890876  2.49581109 -0.76844028
N  -0.40133414  0.15456136 -0.21591803
O  -1.13263414 -0.60985167 -0.73006151
C  -0.03651207 -0.08181389  1.24818341
C  -1.07123206  0.68779263  2.08541095
C  -0.15745836 -1.57626874  1.51137827
C   1.39853194  0.38938588  1.49809859
C   1.71944572  1.73590965  0.87696511
N   3.15281025  2.05254618  1.14687525
C   1.51667362  1.68474315 -0.62610887
H  -0.99743641  0.80157718 -2.84689288
H   0.60287852  0.03223988 -2.68741277
H   0.47380516  1.75491560 -3.07687537
H  -1.92092031  2.19647370 -1.00094189
H  -0.61241782  3.30089732 -1.44720349
H  -0.85133117  2.87548278  0.24985702
H  -2.08499693  0.39368424  1.81365925
H  -0.97034706  1.76832552  2.00897010
H  -0.89489453  0.39986490  3.12317746
H  -1.18983342 -1.91938086  1.44946865
H   0.20372613 -1.75245037  2.52581112
H   0.46195361 -2.15089405  0.81985374
H   2.08737570 -0.35839366  1.09875766
H   1.53267132  0.41878447  2.58158495
H   1.14460375  2.53932275  1.33617789
H   3.76947720  1.34464745  0.72201274
H   3.34170360  2.07961878  2.14908460
H   3.40217628  2.96174430  0.75692135
H   2.19177400  0.93777954 -1.05078105
H   1.75162681  2.64840347 -1.08340463
N  -4.97062979 -0.59558950 -0.12240441
C  -4.13371568  0.52129776 -0.64501639
C  -4.09119163 -1.71252444  0.32576783
C  -5.77669476 -0.10955797  1.03322805
C  -5.88013769 -1.07927605 -1.19904698
H  -3.49367252 -2.05074137 -0.51814906
H  -3.46853587  0.85641825  0.14774699
H  -3.55990716  0.15983319 -1.49629586
H  -4.78924516  1.33433156 -0.95237749
H  -6.51342845 -0.25396798 -1.51968565
H  -5.27591365 -1.43478428 -2.03186396
H  -6.48938983 -1.88990769 -0.80333593
H  -5.09714277  0.24414595  1.80692236
H  -6.41793996  0.70242178  0.69484179
H  -6.37957037 -0.93384030  1.41021046
H  -3.44971959 -1.34873192  1.12576716
H  -4.71976573 -2.52322170  0.69048187
B   4.30504823 -1.25864530 -0.40804867
F   4.71139292  0.09964580 -0.22802258
F   5.30721916 -1.94017548 -1.11229496
F   4.11237143 -1.84266375  0.85514690
F   3.10095660 -1.28259695 -1.13421288

