54
Total Energy                               R     -1.178527924362044E+03
C   2.34145905  1.11077378 -1.20759025
C   1.86012089  1.30512895 -2.64933579
C   3.69347177  1.84179042 -1.11950161
N   1.31838532  1.69868959 -0.28274954
O   0.04700219  1.17292361 -0.64626564
C   1.54197555  1.38025634  1.16486717
C   2.73077238  2.16045798  1.75412452
C   0.31316109  1.83295473  1.96279456
C   1.72866566 -0.13466291  1.39257723
C   2.81098973 -0.70931033  0.49603118
N   2.86498872 -2.19564128  0.68355440
C   2.53725324 -0.40190115 -0.96587014
H   1.69814478  2.36756937 -2.86026856
H   0.93324211  0.77093637 -2.85049770
H   2.62278334  0.93955743 -3.34350593
H   3.54567043  2.92374361 -1.07033578
H   4.27463596  1.62697782 -2.02047663
H   4.31492776  1.54857820 -0.27624516
H   2.71734194  3.20016149  1.41675094
H   3.70764695  1.74335208  1.52011116
H   2.65054891  2.16431927  2.84457858
H   0.11894388  2.89858880  1.80134583
H   0.49692295  1.68517502  3.03123087
H  -0.58300343  1.27811536  1.69399348
H   0.78679158 -0.64528658  1.17174799
H   1.96872772 -0.32350715  2.44452208
H   3.79835348 -0.35514366  0.79381408
H   1.97174104 -2.63401944  0.42201326
H   3.05605490 -2.43432537  1.65623113
H   3.59729280 -2.60997298  0.10787208
H   1.62940253 -0.93401801 -1.26925046
H   3.35809802 -0.77121508 -1.58989683
N  -3.68466925  1.30333973 -0.06816198
C  -3.14777530  2.50195630  0.63669625
C  -2.92210872  0.09148454  0.35560869
C  -5.12526701  1.13267667  0.26880632
C  -3.53450367  1.48706069 -1.53932827
H  -1.87537150  0.23162888  0.08726189
H  -3.23892594  2.34586096  1.71026946
H  -2.10288881  2.62757813  0.36107675
H  -3.72618162  3.37323442  0.33320116
H  -4.08755918  2.37558120 -1.83985595
H  -2.47632980  1.60481982 -1.76827069
H  -3.93260112  0.60828164 -2.04356968
H  -5.21919946  0.99899245  1.34525784
H  -5.66771378  2.02204571 -0.04803305
H  -5.50516435  0.25539441 -0.25231824
H  -3.03034259 -0.02481904  1.43260653
H  -3.33894046 -0.77273398 -0.15763139
B  -0.87401966 -3.03255606 -0.08015054
F   0.44965178 -3.56457046 -0.01375122
F  -1.78216977 -4.09902513 -0.20478271
F  -1.13567230 -2.31824401  1.10031706
F  -0.96838636 -2.18957953 -1.19740875

