52
Total Energy                               R     -1.075207335137352E+03
C   1.11278188  1.53916507 -1.19975013
C  -0.02330792  2.18727078 -1.99993635
C   2.40131929  2.22956327 -1.68149279
N   0.85320811  1.77800682  0.25487730
O  -0.45060429  1.29436522  0.54596319
C   1.75980763  1.05756611  1.18325018
C   3.23336835  1.50231852  1.10379571
C   1.35069551  1.41778951  2.61908054
C   1.68835981 -0.48639375  0.91108693
C   0.40779026 -1.13882527  1.38039820
O   0.06615586 -1.22405474  2.54760743
O  -0.27268537 -1.78865585  0.42430650
C   2.01512140 -0.76968535 -0.56958679
C   2.07184555 -2.25324824 -0.84468793
O   2.50316146 -3.07614335 -0.06027723
O   1.66648275 -2.59741741 -2.06901710
C   1.15031454  0.03485211 -1.54340305
H  -0.05881929  3.26633263 -1.81442246
H  -0.99591706  1.76484926 -1.75236539
H   0.15138058  2.03852106 -3.06987390
H   2.50497125  3.22229715 -1.23582560
H   2.35038564  2.35839849 -2.76612910
H   3.31326321  1.67134764 -1.48015544
H   3.29609348  2.59053620  1.03728146
H   3.80665306  1.08206301  0.28213782
H   3.73835297  1.19801287  2.02411566
H   1.58519875  2.47265607  2.79467894
H   1.92501998  0.82634763  3.33704585
H   0.29478369  1.26735918  2.81808763
H   2.46233655 -0.94379668  1.53504026
H  -1.04141709 -2.21844959  0.82249772
H   3.06049175 -0.47465560 -0.71863950
H   1.78262395 -3.55101741 -2.18566498
H   0.13541757 -0.36264157 -1.54683249
H   1.54024959 -0.07864922 -2.55826711
N  -3.88280066 -0.03289668 -0.10573182
C  -3.24155073 -0.22176129  1.22833622
C  -5.24640077 -0.63121351 -0.09460972
C  -3.98061475  1.42403885 -0.40432645
C  -3.05774883 -0.69717597 -1.15434213
H  -5.15967344 -1.69511014  0.11924853
H  -3.85871526  0.26810732  1.97996446
H  -3.17968992 -1.28932788  1.43543541
H  -2.24737907  0.22351475  1.20106214
H  -2.06795828 -0.24657962 -1.15307268
H  -2.99040506 -1.75933344 -0.92538538
H  -3.53940581 -0.55042558 -2.11981676
H  -4.59345866  1.89666936  0.36141721
H  -2.97802218  1.84820043 -0.39795930
H  -4.43899908  1.55030785 -1.38377877
H  -5.83838089 -0.14107419  0.67632403
H  -5.70260365 -0.48054684 -1.07170359

