51
Total Energy                               R     -9.256663749132401E+02
C  -0.35553219 -0.99148795  0.68337334
C  -0.43170741 -1.96730562  1.85884304
C   0.29662712 -1.71672028 -0.50791195
N   0.33842973  0.24772961  1.12555577
O   1.72579994  0.16322692  1.05731899
C  -0.22556341  1.41856232  0.40023776
C  -0.18226359  2.64125554  1.31883884
C   0.49226316  1.77373529 -0.91425174
C  -1.63092724  0.93918783  0.12907220
C  -1.70583173 -0.44329989  0.29031859
C  -2.88793121 -1.12578372  0.06974302
C  -4.02500081 -0.40854012 -0.32270073
O  -5.14864915 -1.14904091 -0.52051224
C  -6.33404955 -0.47861102 -0.90904548
C  -3.96085634  0.97661616 -0.48533147
C  -2.75489808  1.64787400 -0.25599534
H   0.57906255 -2.23227725  2.18392462
H  -0.95029402 -2.89187845  1.58365563
H  -0.95682269 -1.51601844  2.70576293
H   1.31072903 -2.02471688 -0.24626608
H   0.35144863 -1.08830631 -1.39872271
H  -0.28346378 -2.60959974 -0.76385182
H   0.85472067  2.86661177  1.58706603
H  -0.74178410  2.45532209  2.24026700
H  -0.60443683  3.52685228  0.83165337
H   1.54028810  2.00802457 -0.71598876
H   0.01944308  2.64850129 -1.37340351
H   0.45760975  0.95862166 -1.63951661
H  -2.95873293 -2.20263222  0.19412542
H  -7.09700201 -1.24980860 -1.00705358
H  -6.21020424  0.02856047 -1.87142858
H  -6.65048423  0.24592426 -0.15170265
H  -4.83335081  1.54430671 -0.78527920
H  -2.71780374  2.72630458 -0.38502426
N   4.57234139 -0.24889268 -0.50111356
C   5.89273020 -0.43710518 -1.15615955
C   3.48189663 -0.26693705 -1.51993651
C   4.32661458 -1.34448193  0.48291706
C   4.53547474  1.06035765  0.21566824
H   3.65645143  0.54052308 -2.23040936
H   5.89439065 -1.39467120 -1.67518549
H   6.05197132  0.37314735 -1.86638343
H   6.66959976 -0.42391358 -0.39264648
H   5.32349194  1.06469477  0.96839346
H   4.70833360  1.85607891 -0.50853327
H   3.54735943  1.15196701  0.67424015
H   4.34575574 -2.29583186 -0.04802202
H   5.11838129 -1.31981201  1.23131518
H   3.34690420 -1.16268279  0.93295866
H   3.50213793 -1.22807798 -2.03290274
H   2.54742692 -0.12445626 -0.97266740

