51
Total Energy                               R     -9.255718624576302E+02
C   0.35891185  0.82835479  1.08527372
C   0.56115272  1.13779289  2.56937487
C  -0.30191129  2.00282961  0.36448493
N  -0.47387546 -0.39106196  0.93645483
O  -1.63644180 -0.46941083  1.42957460
C   0.20268356 -1.56483616  0.32952242
C   0.30472356 -2.69017604  1.36026772
C  -0.56636124 -2.02562570 -0.90852050
C   1.54113762 -0.95583608 -0.00306558
C   1.62829507  0.36938990  0.41345433
C   2.77350442  1.11380232  0.20281246
C   3.86100002  0.51490482 -0.44150150
O   4.94891280  1.30443897 -0.61476676
C   6.08112676  0.75850149 -1.27207198
C   3.78280636 -0.81611294 -0.86241806
C   2.61712824 -1.54908086 -0.64022315
H  -0.39685987  1.36683245  3.04242753
H   1.21671853  2.00519499  2.67971621
H   1.01628577  0.29009877  3.08768291
H  -1.28389100  2.21069454  0.79683587
H  -0.42264517  1.79371832 -0.70101066
H   0.31617635  2.89750234  0.47333850
H  -0.69147349 -3.03631497  1.64699622
H   0.83223858 -2.35363596  2.25630645
H   0.85215328 -3.53360052  0.93170707
H  -1.58297908 -2.32399573 -0.63911454
H  -0.06398356 -2.88798376 -1.35432171
H  -0.61817343 -1.23175783 -1.65734493
H   2.84737004  2.14801348  0.52419559
H   6.82004457  1.55760457 -1.30662811
H   5.83747341  0.44816475 -2.29295719
H   6.49286822 -0.09025013 -0.71742957
H   4.61688878 -1.29266298 -1.36205052
H   2.56621486 -2.58179051 -0.97194771
N  -4.38871273  0.41727357 -0.71449922
C  -4.50162395 -0.98776691 -0.22514758
C  -5.58233469  0.75805669 -1.53820888
C  -4.30195222  1.34348508  0.45224443
C  -3.15673624  0.55356820 -1.54313510
H  -5.62701291  0.07683758 -2.38660890
H  -5.40598533 -1.07468416  0.37507455
H  -4.55595086 -1.65291050 -1.08546040
H  -3.62254705 -1.21502839  0.37612303
H  -2.29795723  0.30636083 -0.92574301
H  -3.22488070 -0.13227481 -2.38595728
H  -3.08511162  1.58098763 -1.89596334
H  -5.21068430  1.24394043  1.04380704
H  -3.43052761  1.07043800  1.04540933
H  -4.20550802  2.36227781  0.08030059
H  -6.47403671  0.65166615 -0.92285132
H  -5.48517844  1.78534456 -1.88553887

