41
Total Energy                               R     -7.902096373230088E+02
C  -1.40390173  0.40000634 -0.05134264
C  -2.10147300  0.04879032 -1.38375324
C  -3.16061271 -1.04465626 -1.33255214
C  -2.38138039  0.78323203  1.06464900
C  -3.26217557  1.97886741  0.72241719
N  -0.57387465 -0.73914367  0.40723089
O  -1.07736103 -1.80067224  0.89141130
C   0.89019523 -0.57720307  0.24788434
C   1.54136636 -0.24912201  1.61281538
C   1.32353260 -1.25364692  2.73826180
C   0.91511278 -2.27153842 -1.71075172
C   1.49727855 -1.84230666 -0.36891382
C   0.91923872  0.67192808 -0.67805332
C   2.19523758  1.46418717 -0.59493706
O   2.32159072  2.54797729 -0.06687697
O   3.21304140  0.83966948 -1.19580459
C  -0.32709476  1.46650245 -0.29080535
H  -3.59767993 -1.18140532 -2.32579958
H   0.83477518  0.33874212 -1.71392177
H  -2.55230257  0.97318273 -1.75750274
H  -1.33162092 -0.22545277 -2.11203844
H  -0.61600790  2.17032858 -1.07134410
H  -2.66710143  2.85170833  0.43706284
H  -3.00787664 -0.07905744  1.30757068
H  -3.94829306  1.75707938 -0.09927586
H  -3.86761842  2.26101674  1.58770838
H  -3.97573847 -0.79297018 -0.64847253
H   1.18297310  0.72986254  1.94552391
H   1.87268070 -0.92516880  3.62500252
H  -2.74392111 -2.00459796 -1.02046180
H   0.27018833 -1.33261971  3.01465530
H   1.68325577 -2.25340311  2.48382323
H   1.13150244 -1.55740632 -2.50928628
H  -0.16953494 -2.40107241 -1.65867158
H   2.57431367 -1.67720298 -0.46143654
H   1.34624263 -3.23019824 -2.01085602
H   1.37354847 -2.65825361  0.34683021
H   2.61712260 -0.14274495  1.43355084
H   4.01743599  1.37044485 -1.10850801
H  -0.14813557  2.03407180  0.62506742
H  -1.79119603  1.00308359  1.96081530

