29
Total Energy                               R     -5.378260808550282E+02
C  -1.22852561 -0.90620097 -0.01226466
C  -1.93289687 -1.39448775  1.25504137
C  -1.97360101 -1.37400343 -1.26354495
N  -1.12755735  0.56847774 -0.00260419
O  -2.14116422  1.32564500  0.02516287
C   0.25792370  1.08905197  0.00555035
C   0.49312873  1.95740662 -1.23185825
C   0.49721990  1.89356909  1.28539549
C   1.03710256 -0.21028827 -0.03280419
C   2.53312879 -0.20101977 -0.05143155
N   3.10031916 -1.54670574 -0.04839967
C   0.23069943 -1.26805288 -0.03891982
H  -2.96463420 -1.03398820  1.28274941
H  -1.41435070 -1.04263262  2.15079791
H  -1.95184140 -2.48766056  1.27332118
H  -3.00486204 -1.01122402 -1.25291800
H  -1.99566439 -2.46669769 -1.29792697
H  -1.48285107 -1.00932944 -2.16974535
H  -0.19290008  2.80820927 -1.22844654
H   0.33538701  1.38399242 -2.14919735
H   1.51478265  2.34542266 -1.23564273
H  -0.20191620  2.73228898  1.33379141
H   1.51238598  2.29718424  1.29957991
H   0.35765954  1.27015688  2.17260199
H   2.88759098  0.41428280  0.78908768
H   2.87071902  0.31003200 -0.95991218
H   2.90636661 -1.99923720  0.83945326
H   4.10974632 -1.48043356 -0.11733946
H   0.54928519 -2.30377759 -0.06551278

