36
Total Energy                               R     -7.504053027296854E+02
C  -0.95943352 -0.00410097 -0.04115101
C  -2.45481797  2.37070228 -0.19506693
C  -3.05932423 -1.27846724  0.04165108
N   1.84053647  0.06628288 -0.32740587
O   3.09726389  0.09938069 -0.53799907
C  -2.38549303 -0.03731140 -0.05241212
C  -2.34766089 -2.44126998  0.15104867
C  -3.11379276  1.17558665 -0.14199652
C  -0.24301208 -1.23169959  0.01718788
C  -0.29704055  1.25816484 -0.06744002
C  -1.04490811  2.40786873 -0.14390990
C   1.51021964  1.53168178  1.62529337
C   1.89241310 -1.86512113  1.19663305
C   1.27265375 -1.28807061 -0.08706019
C   1.20843896  1.33593695  0.12781059
C   1.83786880  2.47458517 -0.67652028
C   1.67481154 -2.15198046 -1.29210775
C  -0.93982999 -2.41276402  0.13131961
H  -3.00744054  3.30187058 -0.26043625
H  -0.56310665  3.37757427 -0.14424271
H   1.16750487  2.52159763  1.93483171
H  -2.85904025 -3.39398763  0.23776388
H   1.57876729 -1.30941301  2.08131145
H   1.58338865 -2.90479482  1.31966644
H  -4.14485513 -1.28769934  0.03387851
H  -0.40695994 -3.35504990  0.19370533
H   1.31635590 -3.17285841 -1.15800788
H  -4.19853715  1.13476739 -0.15896719
H   1.62890443  2.36872700 -1.74361004
H   1.44865964  3.43429807 -0.33891173
H   0.99707271  0.78884061  2.23835444
H   2.98184629 -1.84017786  1.12973401
H   2.58574729  1.46179551  1.80651128
H   2.91641793  2.49391422 -0.52868157
H   2.75990929 -2.18701905 -1.39136562
H   1.24694288 -1.75385684 -2.21537763

