46
Total Energy                               R     -6.980430816625735E+02
C  -1.56181136  1.32489094 -0.16750859
C  -0.87058936  2.35566829 -1.06767242
C  -2.89679307  1.97011351  0.24504439
N  -1.77365403  0.06476707 -0.95909454
O  -0.52549819 -0.29590389 -1.55351529
C  -2.24669275 -1.10297980 -0.13978002
C  -3.71837136 -0.94434056  0.28347297
C  -2.20749729 -2.35669349 -1.02011661
C  -1.36488701 -1.33590868  1.10337760
C  -1.17440598 -0.07291279  1.94142768
C  -0.68319917  1.08452251  1.07488604
H  -1.46402813  2.54745719 -1.96877670
H   0.12412874  2.03810922 -1.37646180
H  -0.77069398  3.30301937 -0.52869384
H  -3.61851401  1.94118961 -0.57605821
H  -2.72379159  3.02087828  0.49537742
H  -3.36113169  1.51727861  1.11822078
H  -4.32095405 -0.53875183 -0.53398894
H  -3.86557693 -0.31341577  1.15745461
H  -4.12574082 -1.92701121  0.53849026
H  -2.82357627 -2.22281791 -1.91646716
H  -2.61155794 -3.20826621 -0.46375015
H  -1.19735614 -2.61063228 -1.33700423
H  -0.38489422 -1.70129702  0.77865594
H  -1.80793561 -2.13373946  1.71098651
H  -0.45346561 -0.26616514  2.74350548
H  -2.11302305  0.19683985  2.43847412
H   0.33559367  0.87089477  0.74128955
H  -0.63222073  2.00837193  1.66315087
N   3.55364660 -0.14231805  0.02325996
C   2.52975724 -0.93956677  0.75800590
C   4.07291984 -0.94231531 -1.12187108
C   2.93373238  1.11169052 -0.49265896
C   4.67486905  0.19846924  0.94344172
H   4.53625129 -1.84815116 -0.73508044
H   1.70884194 -1.15643128  0.07698443
H   2.99063691 -1.86319209  1.10442576
H   2.17330240 -0.35652519  1.60535714
H   4.28129159  0.78935772  1.76869189
H   5.11282633 -0.72502294  1.31850045
H   5.41877856  0.77123712  0.39216708
H   2.11982142  0.84539904 -1.16449723
H   2.55366643  1.68715052  0.34932547
H   3.69354768  1.68162865 -1.02484893
H   3.24052701 -1.19556397 -1.77623688
H   4.80709738 -0.34556604 -1.66052060

