46
Total Energy                               R     -6.979420989856276E+02
C   1.62097765  1.32744720 -0.13254744
C   1.50557526  2.34727758 -1.26500038
C   0.67462160  1.73138991  1.00554429
N   1.21150611 -0.00842474 -0.66639057
O   0.12820153 -0.03713519 -1.34295187
C   1.68206609 -1.31914727 -0.12076058
C   0.75279538 -1.75570266  1.01891595
C   1.61648282 -2.35246968 -1.24501335
C   3.13240182 -1.19633858  0.36276100
C   3.39171663  0.05042287  1.19343994
C   3.07628030  1.27474385  0.34892739
H   0.46980967  2.50301382 -1.57035928
H   2.08604561  2.03635669 -2.13742766
H   1.90265488  3.30417905 -0.91658042
H  -0.36031156  1.74554469  0.65839397
H   0.93135058  2.73980179  1.34060063
H   0.74375241  1.06299505  1.86501458
H  -0.28281731 -1.79853533  0.67491386
H   0.80610003 -1.08862151  1.88060700
H   1.04003659 -2.75738056  1.34934377
H   0.58962886 -2.56375794 -1.54704960
H   2.06263348 -3.28500234 -0.89002045
H   2.17875688 -2.01914000 -2.12107103
H   3.79431399 -1.18037145 -0.51098426
H   3.37008842 -2.10480786  0.92337521
H   4.44000257  0.07581022  1.50357678
H   2.79383997  0.04196434  2.11039165
H   3.73669185  1.27758712 -0.52610318
H   3.27480800  2.19923118  0.89840292
N  -3.43771381 -0.01065147  0.12613550
C  -2.68719834  0.00272155  1.41370466
C  -3.15192012 -1.28084345 -0.60028852
C  -4.89858261  0.08763454  0.40425333
C  -3.01002189  1.14606990 -0.71267603
H  -2.08387450 -1.33420451 -0.80382202
H  -3.01204729 -0.84470726  2.01511253
H  -1.62508407 -0.07520302  1.19807085
H  -2.89878412  0.93659087  1.93191861
H  -3.20055836  2.06547482 -0.16144250
H  -1.94792779  1.04473633 -0.92995200
H  -3.58569359  1.13672481 -1.63677922
H  -5.19600889 -0.76080639  1.01813095
H  -5.09093546  1.01959128  0.93330740
H  -5.43742761  0.07447089 -0.54173916
H  -3.46058625 -2.11753772  0.02399700
H  -3.71178287 -1.28261667 -1.53398802

