54
Total Energy                               R     -1.460551856905275E+03
C  -0.99906970 -0.78361626 -0.46688633
C  -0.16823747 -0.24210879 -1.63500736
C  -0.65398912 -2.26320064 -0.28017708
N  -0.79055779 -0.10444919  0.84315710
O   0.50497248  0.41109991  0.99800996
C  -1.85143764  0.89782777  1.06977641
C  -1.95557033  1.18228076  2.56515712
C  -1.67677310  2.23155201  0.32706306
C  -3.06011053  0.08317680  0.53874457
C  -4.31601898  0.89044439  0.33857130
O  -4.70504300  1.32473079 -0.72320934
O  -5.04252495  1.14133200  1.43841509
C  -2.51688383 -0.52170273 -0.75159035
C  -3.24867268 -1.72153076 -1.28434960
O  -3.20686399 -2.06923935 -2.44805687
O  -3.94724848 -2.39681576 -0.36952258
H   0.89417678 -0.44612937 -1.49356707
H  -0.29598217  0.83242778 -1.77292232
H  -0.48526230 -0.73862075 -2.55758790
H   0.37971897 -2.34415048  0.06655647
H  -0.73484121 -2.82513573 -1.21612984
H  -1.29778981 -2.73361606  0.46760514
H  -1.00816180  1.58651231  2.93108878
H  -2.17843456  0.26963476  3.12523942
H  -2.73083237  1.92344708  2.78124556
H  -0.73892003  2.70167787  0.62943428
H  -2.48655402  2.92110452  0.58452057
H  -1.66553325  2.12342036 -0.75877622
H  -3.27244516 -0.69947428  1.27074253
H  -4.65992034  0.72951113  2.22351608
H  -2.58208077  0.22195305 -1.54700413
H  -4.36752030 -3.16222832 -0.78682985
N   3.11424471  2.65750426 -0.62964292
C   3.00111926  3.09656491  0.78990431
C   3.33041190  1.18110213 -0.67283147
C   1.85432906  2.99440697 -1.35105323
C   4.26146589  3.35192473 -1.27645121
H   4.26164035  0.95433617 -0.15714433
H   2.15446845  2.58616523  1.24626140
H   3.92188587  2.83692557  1.30976573
H   2.84787611  4.17435147  0.81169473
H   4.08555054  4.42583698 -1.24235991
H   5.17228551  3.10323724 -0.73447979
H   4.33633063  3.01645263 -2.30941414
H   1.02891863  2.48865643 -0.85536500
H   1.71088776  4.07335211 -1.31854293
H   1.94018328  2.65671838 -2.38247926
H   2.48944480  0.69738602 -0.17911288
H   3.39276411  0.87150296 -1.71442662
B   3.72392854 -2.42855617  0.57209184
F   3.32548154 -1.96406064 -0.69759041
F   3.57020368 -1.40458648  1.52747990
F   2.93170516 -3.53722773  0.93834877
F   5.08071876 -2.81917496  0.51988420

