54
Total Energy                               R     -1.460239957440028E+03
C  -0.70520956  0.59623407 -1.32032939
C   0.46989008  0.21626357 -2.24313810
C  -1.99810741  0.70580519 -2.11179151
N  -0.81198215 -0.53345301 -0.34362673
O  -1.37007823 -1.53364174 -0.59186424
C  -0.11325314 -0.31214693  0.97076052
C  -1.10158111 -0.64524408  2.08667577
C   1.06980662 -1.28846738  0.99173221
C   0.23144892  1.20160693  0.91402932
C   1.71844960  1.49019374  1.08888023
O   2.45783435  1.84792292  0.20595226
O   2.19458136  1.34914812  2.32608937
C  -0.32582447  1.78459629 -0.40779438
C  -1.48666140  2.74110414 -0.20320890
O  -1.63975754  3.73658979 -0.87329726
O  -2.31982142  2.37061065  0.75951003
H   0.26147289 -0.72900260 -2.74563344
H   1.41104337  0.14964238 -1.69950498
H   0.54967497  1.01196886 -2.98493166
H  -2.14783219 -0.18877715 -2.71589207
H  -1.90791784  1.56059290 -2.78305633
H  -2.86383628  0.84650264 -1.46374504
H  -1.37560821 -1.69962284  2.05497632
H  -1.99595360 -0.02539041  2.02464171
H  -0.59394683 -0.44002438  3.03080931
H   0.70305282 -2.30913100  0.87866225
H   1.56034221 -1.20601927  1.96156775
H   1.79312137 -1.07574141  0.20571663
H  -0.27124594  1.67818478  1.75522554
H   1.52166128  1.07720179  2.96390153
H   0.44594870  2.35870699 -0.91542678
H  -3.05207829  3.00073841  0.82765876
N   5.28327008 -1.00266191 -0.33003408
C   6.18049131  0.18763738 -0.35575487
C   4.66080164 -1.12471538  1.01900322
C   4.21751064 -0.83656731 -1.35904713
C   6.07511790 -2.23019443 -0.62432022
H   5.45273004 -1.24252688  1.75683659
H   5.58793899  1.07473532 -0.13819642
H   6.95498619  0.05846705  0.39812299
H   6.62683435  0.26651416 -1.34550306
H   6.52616416 -2.12730260 -1.60966791
H   6.84890563 -2.33718299  0.13416492
H   5.40748713 -3.08990565 -0.60403307
H   3.66102439  0.07076610 -1.13373876
H   4.68787026 -0.75579883 -2.33757441
H   3.56112152 -1.70433417 -1.32841259
H   4.09050462 -0.22109768  1.22289600
H   4.00795162 -1.99553699  1.02529101
B  -4.79617050 -1.42277838  0.07275485
F  -4.05160964 -2.27842813  0.91044996
F  -4.44116294 -0.08271863  0.33163533
F  -4.52414004 -1.73062583 -1.27631184
F  -6.17296811 -1.59951663  0.32660374

