61
Total Energy                               R     -1.577986794305551E+03
C   0.97436231 -0.54986914 -0.21736889
C  -0.23759351 -0.33172930 -1.13707635
C   0.50014563 -1.00619269  1.18189092
N   1.81514822 -1.54777794 -0.93609928
O   1.08568557 -2.74590272 -1.11346257
C   3.14295207 -1.86588498 -0.36418785
C   3.13911038 -2.74559251  0.90761240
C   3.89751491 -2.63641880 -1.46387422
C   3.88407949 -0.57398493 -0.05639893
C   3.19628557  0.67078718  0.05105840
C   1.76767339  0.74824290 -0.04679241
C   1.17960742  1.99476789  0.07425043
C  -0.28630740  2.29739627  0.02555207
O  -0.79570798  2.94858618 -0.86518419
O  -0.95964687  1.89243911  1.09573454
C   1.95277993  3.17096497  0.26064428
C   3.30536372  3.10247265  0.38362499
C   3.95961501  1.85048011  0.29899263
C   5.36123800  1.77192226  0.47203392
C   5.98993180  0.55947641  0.41589650
C   5.24614297 -0.60473285  0.14846832
H  -0.65900974 -1.29890367 -1.40030354
H   0.05843942  0.17351792 -2.06049937
H  -1.03339191  0.23926736 -0.66651074
H   0.21776471 -2.05990893  1.15760649
H  -0.36371387 -0.42568355  1.50447716
H   1.27821563 -0.87368173  1.93508194
H   2.49323230 -3.61445777  0.76748377
H   2.80807484 -2.20503494  1.79379691
H   4.15170792 -3.10760264  1.10530072
H   3.34952801 -3.54240813 -1.72419211
H   4.89446567 -2.93918323 -1.13969121
H   4.00019772 -2.02411155 -2.36418938
H  -1.91368034  2.09049678  0.99328552
H   1.44525088  4.12768869  0.32704031
H   3.89333020  3.99857102  0.55409006
H   5.91771186  2.68480718  0.66061201
H   7.06219363  0.48608018  0.56514387
H   5.77826737 -1.54751742  0.10196821
N  -3.56659208 -2.55204039  0.42304225
C  -2.36901737 -3.43943200  0.43107732
C  -3.26360413 -1.29233452  1.16061586
C  -3.93024234 -2.22680603 -0.98562876
C  -4.70520752 -3.24903359  1.08418221
H  -2.95961453 -1.54635132  2.17466407
H  -1.55108982 -2.93291099 -0.07679171
H  -2.09821495 -3.65200553  1.46378928
H  -2.61685583 -4.36241459 -0.09060172
H  -4.91517198 -4.16910311  0.54144484
H  -4.42682337 -3.47377587  2.11246663
H  -5.57491764 -2.59444538  1.06456480
H  -3.08717171 -1.72464431 -1.45634973
H  -4.15530076 -3.15473976 -1.50893576
H  -4.80276684 -1.57646970 -0.98066788
H  -2.46039462 -0.77305008  0.64624746
H  -4.16005916 -0.67687212  1.17780629
B  -4.37788807  1.91169703 -0.31560225
F  -3.55770953  1.17183115 -1.17862944
F  -3.64777789  2.20432475  0.88245147
F  -4.75296992  3.12098239 -0.92013149
F  -5.51846305  1.16809660  0.02821326

