42
Total Energy                               R     -1.127370874391776E+03
C   2.03876888  1.40362997  0.43821656
C   2.50077752  2.80041842  0.07098759
C  -0.32888694  2.07756576 -0.01482543
N   2.89500728  0.41645782 -0.31397556
O   3.84756689  0.79803241 -0.88838965
C   2.60983322 -1.06877137 -0.32069248
C  -2.13015509  0.46372836 -0.04468730
C   2.92524967 -1.56557305 -1.73805355
C   1.15120575 -1.32896562  0.00929874
C   0.19067673 -0.28421207  0.02979172
C   0.59658534  1.07859285  0.07932586
C  -1.70392185  1.76531320 -0.08967521
C   2.27789919  1.13347576  1.93988836
C  -2.66566927  2.89582158 -0.16940314
O  -3.94236575  2.51323987 -0.18468159
O  -2.33136757  4.06168223 -0.21806533
C   3.59865202 -1.67959193  0.69207317
C  -1.19584870 -0.59923076  0.01098253
C  -1.58531080 -1.97007983  0.09443176
C  -3.01208732 -2.38667663 -0.00115951
O  -3.28315193 -3.45725227  0.74728324
O  -3.84687288 -1.84953889 -0.69805227
C  -0.62775481 -2.94747181  0.20505931
C   0.73808284 -2.63025902  0.13190329
H   3.55477976  2.92943608  0.31556146
H   3.37132592 -1.39436156  1.71748299
H   1.93916422  3.51933870  0.66559950
H   2.34636811  3.01339028 -0.98800773
H  -0.03837859  3.11888801  0.01307989
H  -4.51002366  3.29502752 -0.23476551
H   2.28620201 -1.07388956 -2.47380655
H  -3.18728661  0.24360681 -0.04973494
H   3.52881909 -2.76353307  0.60446933
H   3.97279639 -1.39683144 -1.98453285
H   2.73284078 -2.63732834 -1.76608856
H   4.61726266 -1.38171983  0.44000642
H   1.74236099  1.91926877  2.47435129
H   3.34027370  1.20222038  2.17939177
H   1.88404843  0.17208928  2.26603101
H  -4.20200201 -3.72598904  0.60393077
H  -0.91759949 -3.98748127  0.28505178
H   1.45494906 -3.44292600  0.12428001

