59
Total Energy                               R     -1.341795391856073E+03
C   0.75037897  0.58838704  1.79102450
C   1.66513140 -0.46770025  2.39854589
C   0.13130511  1.41967365  2.93300333
N   1.59283407  1.46138915  0.92555163
O   2.84778343  1.50090808  1.12886905
C   1.02497988  2.54872451  0.09812602
C   1.16361173  3.87542580  0.86224577
C   1.84753363  2.61199709 -1.19991606
C  -0.41588401  2.22813940 -0.26865154
C  -1.01314780  0.96699137  0.01780543
C  -0.39129133  0.04884691  0.92816231
C  -0.93324429 -1.20775515  1.06127005
C  -0.41536864 -2.33049263  1.91000258
O   0.30984296 -3.20629474  1.49751376
O  -0.93983388 -2.32801389  3.13390580
C  -2.10852219 -1.57194319  0.36544352
C  -2.78943459 -0.66989564 -0.40045016
C  -4.11223197 -1.08188086 -0.94391116
O  -5.09386729 -0.37147332 -1.00049051
O  -4.13016713 -2.35696676 -1.34151326
C  -2.25977182  0.64210134 -0.59655981
C  -2.90905289  1.60490268 -1.40432012
C  -2.35478868  2.84256728 -1.58353489
C  -1.10381850  3.14657255 -1.02637479
H   2.48442694  0.02293707  2.92011622
H   2.08419098 -1.13646209  1.64714698
H   1.12616904 -1.04521383  3.14638218
H   0.92216784  1.92396591  3.49316715
H  -0.40324443  0.74809430  3.60829266
H  -0.57696577  2.16455389  2.56873211
H   2.20292682  4.01139103  1.16766919
H   0.52816804  3.90524186  1.74765934
H   0.89324836  4.71201797  0.21617990
H   2.89852171  2.80037842 -0.97931842
H   1.47987799  3.42612401 -1.82553256
H   1.76266946  1.67965836 -1.76144734
H  -0.63086574 -3.10298751  3.62760059
H  -2.50352894 -2.57244444  0.50006636
H  -5.02690678 -2.59254788 -1.61963883
H  -3.84781640  1.36248110 -1.88233693
H  -2.86297095  3.58339553 -2.19091881
H  -0.66143260  4.11153307 -1.24550165
N   3.03202893 -1.66031404 -1.78414425
C   3.73636782 -0.49805160 -2.39609460
C   3.77153761 -2.09979952 -0.56678157
C   1.65107340 -1.25426431 -1.39965443
C   2.96737906 -2.78073451 -2.76373715
H   4.76751808 -2.42603997 -0.86174981
H   3.77900794  0.30744529 -1.66481076
H   4.74265427 -0.80696086 -2.67445741
H   3.18304525 -0.17853198 -3.27756017
H   2.42187611 -2.44369903 -3.64350897
H   3.98179391 -3.06679130 -3.03618937
H   2.45126048 -3.61969094 -2.30022125
H   1.72884902 -0.44194870 -0.68374952
H   1.11968503 -0.92254408 -2.29009959
H   1.14658575 -2.10799144 -0.95191234
H   3.84103723 -1.25766865  0.11960197
H   3.22749403 -2.92136762 -0.10364999

