59
Total Energy                               R     -1.341915290791972E+03
C   2.24367864  0.89845346  0.34788757
C   2.33601265  1.52092563  1.75050876
C   3.15295592  1.68912306 -0.62038616
N   2.62686802 -0.52783437  0.53959448
O   3.93604342 -0.60798168  1.06296958
C   2.51198250 -1.42000982 -0.63396941
C   3.56525269 -1.22129625 -1.74759676
C   2.67185783 -2.85192917 -0.08841497
C   1.12587348 -1.26897101 -1.23846276
C   0.30352512 -0.13815135 -0.95593858
C   0.80548932  0.95290875 -0.17119830
C  -0.04698324  2.01262101  0.07914524
C   0.26678564  3.27147713  0.82666079
O  -0.25258567  3.56939930  1.88101313
O   1.07295236  4.09466735  0.16028070
C  -1.38958943  1.99596102 -0.35395851
C  -1.87663042  0.98308720 -1.12877418
C  -3.28384119  1.08613143 -1.59768874
O  -3.68316465  0.79366554 -2.70595481
O  -4.09777644  1.57227396 -0.65465012
C  -1.02779842 -0.10800302 -1.48199224
C  -1.48802128 -1.17816385 -2.28421965
C  -0.65121438 -2.21355162 -2.59545406
C   0.65098305 -2.25195542 -2.07654423
H   3.30453845  1.26879373  2.17619477
H   1.55657596  1.12857704  2.40991375
H   2.27789731  2.60739351  1.73552822
H   3.06718725  2.76081539 -0.43874128
H   2.89512061  1.51337566 -1.66528357
H   4.19373251  1.39864783 -0.46422217
H   4.56635141 -1.15489403 -1.31743899
H   3.38308222 -0.33018536 -2.34708653
H   3.54652261 -2.07918799 -2.42524880
H   3.65036345 -2.95835965  0.38026496
H   2.60498476 -3.60060513 -0.87874303
H   1.90375952 -3.07002519  0.65856771
H   1.20992552  4.90469506  0.67379839
H  -2.03157085  2.82700875 -0.08705122
H  -4.98682110  1.67699924 -1.02250839
H  -2.50077019 -1.17221729 -2.66156145
H  -0.99923960 -3.02262585 -3.22886299
H   1.27868473 -3.09671242 -2.33155909
N  -1.91566091 -1.90351666  2.16205468
C  -1.01685981 -2.80903792  1.39078340
C  -3.13076903 -1.60616714  1.35189086
C  -2.31476386 -2.56317334  3.43687550
C  -1.19611688 -0.63363664  2.46502938
H  -2.81957173 -1.16399022  0.40796467
H  -1.55610145 -3.72829640  1.16753805
H  -0.72636935 -2.30951931  0.46911590
H  -0.13819326 -3.02415999  1.99588846
H  -0.29980288 -0.86743976  3.03692070
H  -0.92799671 -0.15722439  1.52667689
H  -1.85565370  0.01345201  3.04093075
H  -2.82571646 -3.49579867  3.20383712
H  -1.41854992 -2.76120200  4.02236205
H  -2.97979876 -1.89546447  3.98206097
H  -3.66507984 -2.53713224  1.17021045
H  -3.76054597 -0.91130919  1.90462394

