47
Total Energy                               R     -1.552008991193065E+03
C   1.51065418  0.96911163 -1.28831401
C   1.86865192  2.43375275 -1.11169289
C   1.68704219  0.56921376 -2.77034404
N   2.52834168  0.17846386 -0.49023683
O   3.43658841  0.74374283 -0.00401270
C   2.46736212 -1.31632457 -0.35134944
C   3.43188061 -1.86441671 -1.42872032
C   3.00489416 -1.65694955  1.04395657
C   1.03546909 -1.79141652 -0.51379589
C  -0.06423022 -0.89415292 -0.59713552
C   0.13188076  0.50644582 -0.81514023
C  -0.95029846  1.34850892 -0.75079978
C  -0.95166125  2.83962337 -0.91931557
O  -0.89305840  3.61942640  0.00094369
O  -1.13684112  3.20015770 -2.18676477
C  -2.24677776  0.83628256 -0.52190624
C  -2.47455397 -0.50609928 -0.43071986
C  -3.89048662 -0.96620528 -0.35592943
O  -4.34256659 -1.91667058 -0.95736223
O  -4.63599005 -0.18898266  0.43016975
C  -1.38175363 -1.42138750 -0.47009402
C  -1.56212898 -2.81923566 -0.34407533
C  -0.48568956 -3.66157045 -0.35753708
C   0.81678743 -3.14417557 -0.42890802
H   2.90595056  2.59368411 -1.40497042
H   1.73283686  2.77355597 -0.08587755
H   1.26730286  3.03402846 -1.78917246
H   2.71815105  0.72704258 -3.08989454
H   1.03457321  1.23354227 -3.33868188
H   1.38521276 -0.45624366 -2.97316330
H   4.41192840 -1.39847144 -1.31705985
H   3.06237123 -1.71601852 -2.44058737
H   3.53769277 -2.93404998 -1.24817357
H   4.03651214 -1.32578399  1.15631735
H   2.98067503 -2.73973137  1.15613356
H   2.38350059 -1.20899420  1.81849918
H  -1.19652008  4.16535115 -2.25186071
H  -3.07729511  1.53105441 -0.47791468
H  -5.55562638 -0.48996329  0.40392962
H  -2.55845460 -3.22424402 -0.23432451
H  -0.62993340 -4.73260497 -0.27402878
H   1.65314924 -3.83123830 -0.36965866
B   0.26627586  0.64054115  2.83818201
F   1.26516526  1.04497165  1.92051229
F   0.73253650  0.86382582  4.15077023
F  -0.90478002  1.38984991  2.62049792
F  -0.00726710 -0.72979030  2.66470546

