37
Total Energy                               R     -1.076618510841482E+03
C   1.61151056 -0.27682675  1.33604312
C   2.45496077  0.37648072  2.42842838
C   0.90635981 -1.54514836  1.82765075
N   2.53779147 -0.69693128  0.21941922
O   3.45665446 -1.40507131  0.39065633
C   2.17362911 -0.13914954 -1.13587404
C   3.38994199  0.61181570 -1.67487115
C   1.79628459 -1.33261873 -2.01925317
C   1.01333639  0.73462635 -0.75654520
C   0.70683058  0.66489350  0.59321907
C  -0.34114205  1.38259263  1.13990026
C  -1.11565845  2.19260413  0.30258874
N  -2.15009580  2.96098476  0.82615623
C  -0.80277006  2.26107578 -1.06496200
C   0.25381347  1.53754946 -1.59567933
H   3.15793865 -0.34150566  2.85334857
H   1.77210245  0.70670903  3.21279657
H   2.99502509  1.24324202  2.04417348
H   1.62915844 -2.23844278  2.26081305
H   0.36045201 -2.03271281  1.01895571
H   0.19700241 -1.24113162  2.59871688
H   4.22663703 -0.06944314 -1.83702486
H   3.68874140  1.41454073 -0.99896259
H   3.10161323  1.04879110 -2.63247280
H   2.66016372 -1.97968742 -2.18034370
H   1.46856686 -0.93059126 -2.97943807
H   0.97824136 -1.90596714 -1.58128695
H  -0.57524445  1.30842712  2.19746323
H  -2.54772295  2.59265137  1.67914070
H  -2.87257978  3.19008129  0.15782568
H  -1.40807035  2.88655915 -1.71376798
H   0.47534359  1.59692630 -2.65631496
B  -2.97219112 -1.18449831 -0.19871928
F  -1.80103439 -1.36533363 -0.96196725
F  -3.85438966 -2.26182977 -0.43623788
F  -2.64527551 -1.14431915  1.17221724
F  -3.59886699  0.02246833 -0.57158732

