49
Total Energy                               R     -8.664005929747484E+02
C  -0.73716496 -1.01156077  0.81184455
C  -0.97479192 -1.67362058  2.16682568
C   0.03060155 -1.94493709 -0.12730565
N   0.01466723  0.25474210  0.99281773
O   1.15803410  0.28437547  1.54020370
C  -0.60413125  1.46377429  0.39463859
C  -0.74800568  2.55122472  1.45698223
C   0.24523105  1.95777489 -0.77900166
C  -1.92296664  0.88596382 -0.05055215
C  -1.99952775 -0.48109402  0.18037544
C  -3.12468092 -1.21193204 -0.16478063
C  -4.20912571 -0.55693890 -0.75989914
N  -5.37873879 -1.25617188 -1.06083999
C  -4.12761464  0.82441486 -0.99491392
C  -2.99215573  1.54336880 -0.64359254
H  -0.02426687 -1.95433137  2.62697630
H  -1.56868424 -2.58045451  2.03125615
H  -1.51188137 -1.00432477  2.84299057
H   1.00554671 -2.19906297  0.29708654
H   0.18103882 -1.48147594 -1.10506648
H  -0.53579771 -2.86901340 -0.26551173
H   0.23348878  2.87425577  1.81304629
H  -1.33387823  2.19463314  2.30743672
H  -1.25550029  3.41724754  1.02530810
H   1.24652273  2.23898113 -0.44132349
H  -0.22667573  2.83789356 -1.22293409
H   0.33506580  1.18914217 -1.54990630
H  -3.17305777 -2.28140977  0.02131248
H  -5.23893909 -2.24362423 -1.22319263
H  -5.93005846 -0.84122722 -1.79889709
H  -4.96848704  1.33215042 -1.45832936
H  -2.94919872  2.61123156 -0.83623564
N   4.21116921 -0.24689319 -0.55569613
C   4.24988200  1.09444926  0.09434844
C   5.45587065 -0.45176088 -1.34766932
C   4.10265648 -1.30407062  0.49007372
C   3.02569623 -0.32291622 -1.45558408
H   5.51853153  0.32661450 -2.10650976
H   5.12146240  1.14130168  0.74517861
H   4.31850396  1.85509140 -0.68169763
H   3.33833999  1.22622672  0.67432911
H   2.13455769 -0.17160819 -0.85478738
H   3.10860328  0.45619358 -2.21148533
H   3.00379594 -1.30553634 -1.92380271
H   4.97344491 -1.24267370  1.14052090
H   3.19183320 -1.13506623  1.06189795
H   4.06716254 -2.27586048  0.00060668
H   6.31127423 -0.39211580 -0.67688010
H   5.41466023 -1.43275844 -1.81772492

