49
Total Energy                               R     -8.665150707688379E+02
C   2.09711257  0.12219923  1.10326930
C   3.18833687  0.97144661  1.75471856
C   1.31786561 -0.60089541  2.21698134
N   2.70681847 -0.75978151  0.06814932
O   3.23409287 -1.95654829  0.59075770
C   1.73213225 -0.96836994 -1.04147111
C   2.48889130 -1.11826607 -2.36128134
C   0.79791048 -2.17987795 -0.88093239
C   0.94424418  0.31537191 -0.96519392
C   1.15319475  0.94073496  0.25693549
C   0.50355072  2.12043117  0.58435518
C  -0.38642440  2.69029767 -0.33431175
N  -1.02396429  3.90364793 -0.04491222
C  -0.59574609  2.05772786 -1.56664424
C   0.06590376  0.87440442 -1.88223621
H   3.92215847  0.32848558  2.25051640
H   2.76877398  1.64198293  2.51139556
H   3.71006426  1.57844547  1.00982625
H   1.99117135 -1.19817675  2.83671195
H   0.54067579 -1.25990091  1.82856307
H   0.83375067  0.13859910  2.86227832
H   3.13740926 -1.99960258 -2.33005431
H   3.11004797 -0.24049262 -2.55925765
H   1.79659896 -1.24502074 -3.19991480
H   1.36328123 -3.11509756 -0.89581360
H   0.08516738 -2.20485231 -1.71087036
H   0.22740434 -2.14306198  0.04757657
H   0.66482317  2.60076740  1.54646025
H  -1.14283555  4.07202990  0.94471661
H  -1.90051182  4.02695531 -0.53283464
H  -1.29140459  2.49748218 -2.27605708
H  -0.12094540  0.39466468 -2.83915629
N  -3.19177607 -0.96710744  0.33398473
C  -2.93101196 -2.36249340  0.78699729
C  -4.57049391 -0.56424450  0.72907377
C  -2.20217630 -0.04655114  0.96402653
C  -3.05714682 -0.89415685 -1.14870392
H  -5.28093028 -1.25251858  0.27442989
H  -3.04763376 -2.40672877  1.86839184
H  -3.64635607 -3.02627531  0.30424207
H  -1.91590581 -2.63740035  0.50719546
H  -2.05439460 -1.21495614 -1.42520722
H  -3.79988023 -1.55106238 -1.59839292
H  -3.22231375  0.13414136 -1.46527401
H  -2.26302839 -0.15375726  2.04576873
H  -1.20960501 -0.31480534  0.61161453
H  -2.44227659  0.97359196  0.67177449
H  -4.64881797 -0.60484360  1.81412317
H  -4.75163476  0.44992929  0.37713781

