29
Total Energy                               R     -3.057376186755413E+03
C  -1.21804833  1.26285547 -0.03450001
C  -1.78946662  2.39739197 -0.89333412
C  -1.53538546  1.59083677  1.43763965
N  -1.81528958 -0.00000023 -0.53623128
O  -3.20195242 -0.00000067 -0.32081409
C  -1.21804778 -1.26285567 -0.03450004
C  -1.53538325 -1.59083586  1.43764015
C  -1.78946671 -2.39739278 -0.89333303
C   0.30573057 -1.24344021 -0.27397306
C   0.93634095 -0.00000019  0.31028599
Br   2.90093191  0.00000018 -0.04396224
C   0.30573026  1.24344042 -0.27397203
H  -2.85733365  2.51827734 -0.70398103
H  -1.65463827  2.17837893 -1.95762965
H  -1.28493883  3.34411092 -0.67031753
H  -2.58339835  1.34546776  1.62529558
H  -1.38518007  2.65745874  1.63655968
H  -0.91859202  1.03913928  2.14948735
H  -2.58339559 -1.34546541  1.62529729
H  -0.91858802 -1.03913865  2.14948659
H  -1.38517881 -2.65745790  1.63656053
H  -2.85733344 -2.51827864 -0.70397839
H  -1.28493820 -3.34411144 -0.67031683
H  -1.65463998 -2.17838007 -1.95762883
H   0.49610234 -1.26447296 -1.35292152
H   0.74741452 -2.14646372  0.15817582
H   0.89912988 -0.00000069  1.39774283
H   0.49610247  1.26447404 -1.35292039
H   0.74741391  2.14646368  0.15817768

