36
Total Energy                               R     -9.740575837956424E+02
C  -1.34962351 -0.08745485  1.21629165
C  -1.90286284  1.25934541  1.71363283
C  -1.49032314 -1.12355622  2.33426580
N  -2.01176453 -0.63392273 -0.00000000
O  -3.40431927 -0.47762947 -0.00000000
C  -1.34962351 -0.08745485 -1.21629165
C  -1.90286284  1.25934541 -1.71363283
C  -1.49032314 -1.12355622 -2.33426580
C   0.06797557  0.05015961 -0.69860589
C   0.06797557  0.05015961  0.69860589
C   1.27238264  0.10120285  1.39605610
C   1.34720835  0.14924308  2.88582048
O   0.86012304  1.01714911  3.57631213
O   2.05835650 -0.86151230  3.38940940
C   2.47802247  0.12994289  0.69174230
C   2.47802247  0.12994289 -0.69174230
C   1.27238264  0.10120285 -1.39605610
C   1.34720835  0.14924308 -2.88582048
O   0.86012304  1.01714911 -3.57631213
O   2.05835650 -0.86151230 -3.38940940
H  -2.97547124  1.17239566  1.89897842
H  -1.41817604  1.54073317  2.64978284
H  -1.09227311 -0.76558215  3.28664718
H  -2.55105344 -1.34039444  2.48842405
H  -0.98489654 -2.05656259  2.07189825
H  -0.98489654 -2.05656259 -2.07189825
H  -1.74429776  2.06936456 -1.00128080
H  -1.09227311 -0.76558215 -3.28664718
H  -1.74429776  2.06936456  1.00128080
H  -2.97547124  1.17239566 -1.89897842
H  -2.55105344 -1.34039444 -2.48842405
H  -1.41817604  1.54073317 -2.64978284
H   2.12131074 -0.76754925  4.35132194
H   3.41879676  0.15845137  1.22979211
H   3.41879676  0.15845137 -1.22979211
H   2.12131074 -0.76754925 -4.35132194

