36
Total Energy                               R     -9.739433896428545E+02
C  -1.34670936 -0.05439514 -1.25259480
C   1.34695681  0.14164199 -2.88979053
C  -1.90372105  1.24696579 -1.84127900
N  -2.08063744 -0.35979413 -0.00000000
O   2.18987220 -0.77858625 -3.35960856
C   1.26401509  0.11351745 -1.39876288
C   2.46512407  0.13654658 -0.69182413
C  -1.51644882 -1.22150316 -2.22280463
C   0.05776036  0.08197018  0.69848925
C   0.05776036  0.08197018 -0.69848925
C  -1.34670936 -0.05439514  1.25259480
C  -1.90372105  1.24696579  1.84127900
O   0.75851093  0.92155748 -3.60437746
O  -3.33291909 -0.54448534 -0.00000000
C   1.34695681  0.14164199  2.88979053
C  -1.51644882 -1.22150316  2.22280463
C   1.26401509  0.11351745  1.39876288
C   2.46512407  0.13654658  0.69182413
O   2.18987220 -0.77858625  3.35960856
O   0.75851093  0.92155748  3.60437746
H   2.26066182 -0.69435962 -4.32177487
H  -1.75403167  2.08526398  1.15802521
H  -1.75403167  2.08526398 -1.15802521
H  -1.41060471  1.47316871 -2.78512561
H  -2.97423843  1.13017069 -2.02577570
H  -2.57859693 -1.38234942 -2.41912975
H   3.40662182  0.15715889 -1.22739754
H   2.26066182 -0.69435962  4.32177487
H   3.40662182  0.15715889  1.22739754
H  -1.03468336 -1.00438180 -3.17703643
H  -1.09014867 -2.13968262 -1.81297925
H  -1.09014867 -2.13968262  1.81297925
H  -2.97423843  1.13017069  2.02577570
H  -1.41060471  1.47316871  2.78512561
H  -1.03468336 -1.00438180  3.17703643
H  -2.57859693 -1.38234942  2.41912975

