44
Total Energy                               R     -8.295161729110280E+02
C  -0.51300572  1.40106430  0.03827779
C  -0.52598726  1.89458693 -1.43025576
C  -1.73758102  2.72820583 -1.83527985
C   2.40046957 -0.86852846  1.06772344
C  -0.75030646  2.58698661  0.99536541
N   0.84958172  0.84809268  0.30420003
O  -3.19476389 -1.93899508  0.80131328
C  -1.22741087 -1.02661289 -0.28242827
C   0.07952831 -1.50112890  0.36260168
C  -0.46955238  2.32825068  2.47220827
C  -1.58489080  0.33331782  0.29030994
C  -2.30592265 -2.04363705 -0.01774928
C   1.26383730 -0.56913673  0.06893601
C   1.71433703 -0.76927860 -1.39873012
C   2.95864263 -2.28629544  1.00497709
O   1.78360136  1.71089750  0.42413530
O  -2.17408106 -3.13044849 -0.78850367
C   2.88331376  0.07619406 -1.88540785
H  -1.78534024  3.67593919 -1.29410302
H  -0.45322770  1.03234575 -2.09769490
H   0.38220385  2.48529551 -1.58394315
H  -1.67880667  2.96365912 -2.90149683
H   2.64553735  1.14205564 -1.88575991
H   3.21418115 -0.16118425  0.90696492
H   2.01465184 -0.67320683  2.07402145
H  -0.15911836  3.44216271  0.65708162
H   0.58512888  2.11187763  2.65518257
H  -0.72978981  3.21469523  3.05734603
H   3.73232688 -2.40723623  1.76795186
H  -0.07212300 -1.56513794  1.44578546
H  -1.79906875  2.87487350  0.87773270
H  -1.05641101  1.49634996  2.87032460
H  -1.74167086  0.21815904  1.36502576
H  -2.68034474  2.19877513 -1.67205845
H  -2.52757861  0.69449975 -0.12567386
H  -2.86093134 -3.77392465 -0.56454290
H  -1.10768797 -0.98080907 -1.36781823
H   2.19601925 -3.04670270  1.19220238
H   0.86125388 -0.60894667 -2.06136724
H   0.33789486 -2.50042626  0.00994793
H   3.42114533 -2.50262872  0.03835199
H   1.96875048 -1.82826277 -1.50260648
H   3.13505380 -0.20527416 -2.91205726
H   3.77999949 -0.06915717 -1.27704749

