55
Total Energy                               R     -1.424263157263478E+03
C   0.12408187  0.48342458 -0.80951540
C   1.35166724  1.40311177 -0.81450382
C  -0.64654494  0.56718666 -2.12394244
N   0.59512491 -0.91672076 -0.61924205
O   1.34014861 -1.48780395 -1.47035002
C   0.39430983 -1.47004839  0.73658472
C   1.72125305 -1.50271355  1.50108048
C  -0.22169612 -2.86331799  0.64699052
C  -0.55169397 -0.44126423  1.29611509
C  -0.72640450  0.64369554  0.44007110
C  -1.62916895  1.65098589  0.80109325
C  -1.89305073  2.85267989 -0.03676356
O  -1.06116072  3.46604364 -0.67102957
O  -3.17539031  3.22715766 -0.00040698
C  -2.31057722  1.54894053  2.01810135
C  -2.08507975  0.48442100  2.87963687
C  -1.20461760 -0.52555751  2.51591015
H   2.02328506  1.11278058 -1.62613903
H   1.89442070  1.33378884  0.13089757
H   1.04590396  2.43649568 -0.96716772
H   0.00690854  0.27767313 -2.95008268
H  -0.98244028  1.58751981 -2.30752903
H  -1.51403604 -0.09374527 -2.11156907
H   2.43585412 -2.15994492  0.99966121
H   1.54947712 -1.88567960  2.50987778
H   2.15234428 -0.50271307  1.58020390
H   0.46235977 -3.54808734  0.14025814
H  -1.16903448 -2.83931112  0.10505636
H  -0.40404508 -3.24867831  1.65265144
H  -3.28561376  4.03888242 -0.51567247
H  -3.01218059  2.32446674  2.30035732
H  -2.61127642  0.43725835  3.82626528
H  -1.03893170 -1.37623530  3.16904698
N   5.47351194  0.06259065 -0.14543101
C   5.21381370  1.52228015 -0.30076084
C   6.82166475 -0.26729450 -0.68756264
C   5.41540516 -0.30069051  1.29920107
C   4.43293176 -0.70275192 -0.88941658
H   6.84981381 -0.00027749 -1.74238954
H   5.97950187  2.07370219  0.24232219
H   5.24977573  1.77344028 -1.35940530
H   4.22908490  1.74624865  0.10563491
H   3.46225514 -0.45387130 -0.47302135
H   4.47609222 -0.42207757 -1.94033129
H   4.63075232 -1.76703060 -0.77451069
H   6.18887798  0.25233488  1.82955066
H   4.43341748 -0.03760275  1.68713136
H   5.58444971 -1.37158169  1.39790107
H   7.56930484  0.29969100 -0.13568323
H   6.99459489 -1.33529066 -0.56597181
B  -4.08929491 -1.28628113 -0.79277998
F  -3.97459427 -1.45936372  0.60095803
F  -3.02714843 -1.95141795 -1.44012627
F  -5.31624798 -1.83043992 -1.23260847
F  -4.04883614  0.08749466 -1.10492942

