55
Total Energy                               R     -1.424373620238812E+03
C   0.19457612 -0.61075340 -0.48847674
C  -0.33364250 -0.80037799 -1.91188334
C   1.34925606 -1.60058331 -0.24773163
N   0.55300453  0.82751165 -0.31835874
O   1.80831097  1.16971417 -0.84759664
C   0.36868088  1.22624503  1.09730869
C  -0.03770321  2.70018915  1.15437026
C   1.57807439  1.01956253  2.02756200
C  -0.75838090  0.30590090  1.48963296
C  -0.87456767 -0.74698987  0.58299605
C  -1.90815494 -1.67195283  0.75108869
C  -2.19139554 -2.80972302 -0.16821619
O  -3.28442162 -3.02790787 -0.65073789
O  -1.14975894 -3.61400899 -0.37535486
C  -2.78982867 -1.52923111  1.82871840
C  -2.62846692 -0.50313737  2.74846284
C  -1.60818947  0.42806150  2.57736901
H   0.43023081 -0.47538816 -2.62449998
H  -1.23329235 -0.20381408 -2.07845223
H  -0.56123274 -1.84587500 -2.13291881
H   2.17101300 -1.39304352 -0.93631704
H   1.00921861 -2.62093253 -0.42497642
H   1.73723279 -1.55015377  0.77041582
H   0.76064565  3.32465628  0.74189591
H  -0.21450636  3.02475087  2.18425962
H  -0.94806649  2.87655369  0.57584447
H   2.43378726  1.60742839  1.68546928
H   1.88415662 -0.02515539  2.09520417
H   1.32135982  1.35478249  3.03693608
H  -1.40154532 -4.31505492 -0.99383206
H  -3.59944429 -2.24102043  1.94967300
H  -3.31082537 -0.42012872  3.58747933
H  -1.49343202  1.25008036  3.27731412
N   5.51976742  0.07896739 -0.36833729
C   5.45150060  1.56375428 -0.24685126
C   6.93828419 -0.36554227 -0.27407728
C   4.72544736 -0.54007990  0.73097499
C   4.95318972 -0.33769021 -1.68346049
H   7.50497943  0.09707452 -1.08022383
H   5.87255870  1.85442529  0.71420967
H   6.02569158  2.00707350 -1.05863308
H   4.40871376  1.87064354 -0.31028748
H   3.92160426  0.00573414 -1.74085237
H   5.54760744  0.11352771 -2.47632585
H   4.99576328 -1.42334944 -1.75308107
H   5.14756232 -0.22861722  1.68514085
H   3.69784103 -0.19879263  0.64053224
H   4.77501980 -1.62311699  0.63124441
H   7.33871375 -0.05899039  0.69059932
H   6.97097496 -1.44974996 -0.36670227
B  -3.93014308  1.55293954 -1.12783497
F  -5.12645274  2.11127647 -1.63252117
F  -3.88312907  0.18258857 -1.45257686
F  -2.82771312  2.21583254 -1.70484371
F  -3.89783161  1.71120357  0.27213335

