55
Total Energy                               R     -1.424075436596119E+03
C  -0.08811998 -1.91647384 -0.35817128
C   0.57443465 -1.15293632 -1.51739011
C  -0.23166907 -3.41069157 -0.63401869
N   0.88665099 -1.76315839  0.78989422
O   1.94253893 -2.27126444  0.79331456
C   0.40284208 -0.87970689  1.89979094
C   1.24024212  0.40520687  1.85640005
C   0.56559100 -1.62679980  3.22031604
C  -1.01674859 -0.66574783  1.46503778
C  -1.30504571 -1.22941295  0.22747273
C  -2.60273875 -1.10890386 -0.28908782
C  -3.01522024 -1.67461239 -1.60399927
O  -2.27352227 -1.89709759 -2.53589183
O  -4.32808137 -1.90845574 -1.66912128
C  -3.55222494 -0.39889715  0.45050620
C  -3.23505220  0.18243623  1.67091402
C  -1.95896932  0.04288232  2.19329833
H   1.49241270 -1.66271207 -1.81096670
H   0.80574021 -0.12663365 -1.23416359
H  -0.12398099 -1.14715349 -2.35014620
H   0.74134496 -3.84112617 -0.87387126
H  -0.88665431 -3.54049246 -1.49302653
H  -0.66182314 -3.92659632  0.22568727
H   2.28467769  0.18360805  2.07552094
H   0.84257623  1.07020378  2.62463257
H   1.16129586  0.89667368  0.88737542
H   1.61981086 -1.82430418  3.41814396
H   0.00523496 -2.56283028  3.21624293
H   0.17447574 -0.98452182  4.01076471
H  -4.54996929 -2.23533503 -2.55236381
H  -4.55394530 -0.28827718  0.05617061
H  -3.98949255  0.73965262  2.21346231
H  -1.69612163  0.48215965  3.14943441
N  -1.17886430  3.45489115 -0.28173837
C  -0.61516569  3.45360672  1.09861837
C  -0.63201242  4.61429422 -1.04191460
C  -0.80105718  2.18817705 -0.96911107
C  -2.66385379  3.55696709 -0.21275840
H  -0.91542693  5.53289493 -0.53106797
H   0.46757762  3.36396129  1.03360015
H  -0.88742511  4.38803740  1.58657009
H  -1.03213077  2.60921761  1.64401129
H  -3.04792028  2.69776712  0.33496021
H  -2.92682581  4.48015362  0.30090464
H  -3.06006723  3.56364978 -1.22657357
H   0.28461679  2.13301562 -1.02011023
H  -1.19752867  1.35400376 -0.39632345
H  -1.22548003  2.19103711 -1.97157754
H   0.45224950  4.52494236 -1.08195322
H  -1.04777624  4.59933664 -2.04785713
B   4.25217733  0.28802964 -0.71144612
F   3.16418008  1.17112020 -0.87377583
F   4.01066639 -0.89810241 -1.43429300
F   5.42716829  0.90191980 -1.19476959
F   4.41312827 -0.02098148  0.65515268

