45
Total Energy                               R     -7.719681645414953E+02
C   1.29480464  1.28730446 -0.30378033
C   0.79246961  2.22794293 -1.39787313
C   0.67106570  1.68033691  1.04146073
N   0.88416210 -0.10291149 -0.66251600
O  -0.32137414 -0.24897115 -1.04359201
C   1.58043646 -1.33969778 -0.19911577
C   1.05154564 -1.74748137  1.18157282
C   1.29174112 -2.45020355 -1.20755891
C   3.10041464 -1.10236841 -0.14295061
C   3.46706583  0.22155425  0.46771549
O   4.22787438  0.33886512  1.40484861
C   2.82971876  1.38769467 -0.23457552
H  -0.29538398  2.29788142 -1.39967294
H   1.12513910  1.89333709 -2.38374511
H   1.19845123  3.22685150 -1.21900066
H  -0.40925321  1.52277878  1.02167711
H   0.85694791  2.74138632  1.22744269
H   1.09318772  1.11684765  1.87599443
H  -0.03624532 -1.84153770  1.16080591
H   1.32769569 -1.03475282  1.96097933
H   1.47081667 -2.71950626  1.45426924
H   0.23849486 -2.73209215 -1.19825664
H   1.88617341 -3.32948492 -0.94648675
H   1.56342349 -2.13924015 -2.21960351
H   3.49838196 -1.09870981 -1.16437641
H   3.57216972 -1.91938163  0.40453926
H   3.23268049  1.39902001 -1.25403353
H   3.10624491  2.32398882  0.25223436
N  -3.66183804 -0.01553692  0.20849546
C  -2.81519439 -0.26204480  1.41042447
C  -3.52830183 -1.16698706 -0.73071437
C  -5.08588921  0.13189382  0.62211122
C  -3.20535489  1.23247283 -0.47030249
H  -2.48077883 -1.26649974 -1.01069916
H  -3.15254370 -1.17784320  1.89304924
H  -1.78137178 -0.36380389  1.08819108
H  -2.91764594  0.58192094  2.09039757
H  -3.28935047  2.06069623  0.23178556
H  -2.17071431  1.09520420 -0.77929456
H  -3.84086060  1.40909623 -1.33662222
H  -5.40158204 -0.78198965  1.12284559
H  -5.16548291  0.98001244  1.30041003
H  -5.69153099  0.30300622 -0.26638666
H  -3.87316327 -2.06821236 -0.22634310
H  -4.13930276 -0.97148785 -1.61049079

