45
Total Energy                               R     -7.720667856637417E+02
C  -1.27941605  1.25424189 -0.27159322
C  -0.33273931  2.43139015 -0.01842252
C  -1.92850016  1.50997378 -1.64304802
N  -0.47909782 -0.00000677 -0.22418092
O   0.26678097 -0.00002305  0.97001084
C  -1.27944758 -1.25423631 -0.27159649
C  -1.92860860 -1.50992040 -1.64302704
C  -0.33278376 -2.43140623 -0.01848638
C  -2.37195517 -1.25517904  0.83691007
C  -3.19335505  0.00000543  0.80854149
O  -4.41373694  0.00000346  0.76721670
C  -2.37196039  1.25519366  0.83687787
H   0.44292938  2.46935233 -0.79176096
H   0.15315986  2.33849559  0.95031056
H  -0.88954589  3.37331755 -0.05327254
H  -1.23428086  1.26528788 -2.45190851
H  -2.17955822  2.57124447 -1.72963917
H  -2.85426206  0.96126226 -1.81000950
H  -1.23448868 -1.26509663 -2.45192956
H  -2.85444783 -0.96129271 -1.80985191
H  -2.17956864 -2.57120859 -1.72968600
H   0.44284834 -2.46937139 -0.79186237
H  -0.88960849 -3.37332331 -0.05332149
H   0.15316058 -2.33853716  0.95022667
H  -1.84451123 -1.27373141  1.79768880
H  -3.01683239 -2.13458481  0.76220695
H  -1.84454633  1.27377340  1.79767314
H  -3.01684034  2.13459464  0.76214091
N   3.48975743 -0.00000718  0.05963598
C   3.13151739 -1.21183977  0.85342477
C   4.94157408 -0.00000104 -0.25596327
C   2.69205263  0.00005754 -1.20178168
C   3.13153195  1.21174954  0.85354755
H   5.50550594 -0.00003642  0.67592022
H   3.36655029 -2.09649702  0.26202427
H   3.71823560 -1.21064772  1.77185752
H   2.05952227 -1.13975627  1.06074172
H   2.05953442  1.13966459  1.06084825
H   3.71824057  1.21044794  1.77198686
H   3.36659233  2.09646577  0.26224547
H   2.95067020 -0.89168523 -1.77283471
H   1.63225402  0.00004020 -0.93678931
H   2.95066074  0.89186480 -1.77273879
H   5.17609408 -0.89269463 -0.83431731
H   5.17610285  0.89273118 -0.83425381

