29
Total Energy                               R     -6.329726706009889E+02
C   1.61376540 -0.69793642 -0.10647198
C   2.59827325 -1.12311509  0.97490939
C  -0.73746256  1.21431863  1.52048836
N   1.19515856  0.70592401  0.10723658
O   2.02393512  1.64034187  0.31008688
C  -0.76328181 -0.40949268 -0.47972062
C  -0.58634145  2.12823036 -0.81871992
C   2.24295093 -0.82303345 -1.49622509
C  -2.17403810 -0.74743065 -0.07348714
C   0.27150926 -1.42991284 -0.00709384
O  -2.49747381 -1.56608936  0.75158202
O  -3.07205021 -0.01644167 -0.74736675
C  -0.26602646  0.94818743  0.08816278
H   3.53097945 -0.55943885  0.89891506
H   2.83037892 -2.18573570  0.86190740
H   2.17599698 -0.96671320  1.97123438
H  -0.14048419  3.04363968 -0.42386871
H  -0.55103456  0.35715493  2.17245875
H  -0.20200771  2.07605006  1.92584986
H  -0.20179424  1.96009134 -1.82817136
H  -1.66742976  2.27040736 -0.87831476
H  -0.74942689 -0.33734778 -1.57073681
H   3.11285530 -0.16651931 -1.58099448
H   1.53168185 -0.55461191 -2.28240164
H   2.57136642 -1.85208345 -1.66582693
H  -3.96154928 -0.24304258 -0.43567109
H   0.25740859 -2.33787731 -0.61194750
H   0.07212593 -1.71063117  1.02956403
H  -1.80655630  1.44381127  1.54187892

