45
Total Energy                               R     -7.719594702398979E+02
C   1.24166721  1.25172323 -0.36561947
C   0.72598257  2.14847988 -1.48878180
C   0.52706930  1.60572547  0.94424830
N   0.96137097 -0.16943394 -0.73016831
O  -0.19873053 -0.41125302 -1.20031845
C   1.70378226 -1.33901293 -0.17114380
C   1.12558617 -1.72261369  1.19607715
C   1.55023098 -2.51146753 -1.13684293
C   3.19919383 -0.99595462 -0.04319445
C   3.43527149  0.36613881  0.53752652
O   4.13204255  0.56275850  1.51756893
C   2.75950019  1.46653473 -0.22380736
H  -0.36294508  2.14514836 -1.53974553
H   1.12695860  1.83872887 -2.45667190
H   1.05239103  3.17293198 -1.29485747
H  -0.53068441  1.34494387  0.88509210
H   0.60403810  2.68310056  1.11019311
H   0.96556821  1.10377047  1.80814972
H   0.04637529 -1.87306557  1.12753024
H   1.32835268 -0.97245051  1.96180440
H   1.57930959 -2.66205521  1.52124438
H   0.52331785 -2.87734657 -1.16202495
H   2.19396774 -3.32780894 -0.80104302
H   1.85151833 -2.23150735 -2.14902247
H   3.65209316 -0.99578334 -1.04114883
H   3.69228382 -1.76022192  0.55830164
H   3.21292600  1.48297346 -1.22145378
H   2.94170433  2.43024524  0.25289384
N  -3.71505820 -0.02596576  0.22285249
C  -2.75569597 -0.49436220  1.26324410
C  -3.85106730 -1.07242143 -0.83041254
C  -5.04392293  0.22908162  0.84627051
C  -3.20218654  1.23121997 -0.39345303
H  -2.87060514 -1.25945231 -1.26519604
H  -3.13586474 -1.41592599  1.70046636
H  -1.79346546 -0.66998980  0.78715687
H  -2.66502318  0.27570538  2.02751306
H  -3.08621796  1.98120445  0.38715602
H  -2.24366226  1.01791137 -0.86137055
H  -3.91957036  1.57168208 -1.13822637
H  -5.40236152 -0.69454943  1.29751023
H  -4.93099299  0.99966056  1.60684311
H  -5.73442826  0.56257174  0.07354639
H  -4.23924489 -1.98049509 -0.37248361
H  -4.53889155 -0.71260001 -1.59361730

