33
Total Energy                               R     -9.821771304975905E+02
C  -1.10556943  1.36626289 -0.33754992
C  -0.29659403  2.32313333 -1.19901133
C  -2.58487635  1.79498920 -0.31488135
N  -1.07175924 -0.00401982 -1.00435017
O  -0.90074241 -0.04711563 -2.16693752
C  -1.35636887 -1.31051296 -0.27566424
C  -2.88907477 -1.46365838 -0.26058842
C  -0.72886532 -2.44161518 -1.07566943
C  -0.77610228 -1.25064594  1.14304983
C  -0.96443479  0.05829165  1.85815493
O  -1.35286269  0.12456513  3.00633280
C  -0.53074896  1.27038924  1.08139886
H  -0.78119815  2.50987698 -2.15721603
H   0.71457956  1.95102206 -1.36364036
H  -0.23541613  3.26769684 -0.65618937
H  -3.04320259  1.67793753 -1.29810685
H  -2.58802986  2.85443974 -0.05388070
H  -3.17027899  1.26137257  0.43136375
H  -3.30655082 -1.31628501 -1.25758675
H  -3.37502051 -0.79489645  0.44716311
H  -3.08707610 -2.49026503  0.05180275
H  -1.23042057 -2.58592255 -2.03235730
H  -0.84738942 -3.35215495 -0.48603091
H   0.33519422 -2.26943665 -1.23895586
H   0.30558707 -1.41583401  1.09499093
H  -1.21992594 -2.06298278  1.71833523
H   0.56175655  1.23282791  1.02744395
H  -0.80951321  2.17971005  1.61406515
B   2.80428524 -0.08104034  0.02048396
F   2.60266392 -0.83815057  1.19176648
F   3.97912321 -0.50393661 -0.62489166
F   1.70011409 -0.26563749 -0.84769545
F   2.90503688  1.28403969  0.35373560

