45
Total Energy                               R     -7.720712492074242E+02
C  -1.51073567  1.33474086 -0.32685414
C  -0.80061578  2.39635620 -1.17283068
C  -2.83758695  1.97117327  0.12210433
N  -1.70798140  0.10714309 -1.14958496
O  -0.46065363 -0.24064507 -1.73805206
C  -2.20327050 -1.07532167 -0.38896072
C  -3.66380536 -0.92080300  0.07095925
C  -2.17565765 -2.30230546 -1.30498345
C  -1.30931072 -1.37213899  0.85135322
C  -1.09708486 -0.14917379  1.68588006
O  -1.29339002 -0.12877219  2.89729219
C  -0.62743636  1.04678166  0.92198218
H  -1.39988548  2.64562561 -2.05481584
H   0.18266766  2.06980523 -1.50599084
H  -0.67725177  3.30996906 -0.58435981
H  -3.56515567  1.97314065 -0.69315785
H  -2.65368518  3.01078949  0.40593184
H  -3.29448225  1.49357672  0.98661828
H  -4.27460281 -0.46229901 -0.71038133
H  -3.78308371 -0.34093172  0.98454905
H  -4.07776404 -1.91079025  0.27958466
H  -2.80750119 -2.13588749 -2.18375020
H  -2.57222078 -3.16900178 -0.76839174
H  -1.17063047 -2.54390992 -1.64426041
H  -0.32512784 -1.69280210  0.49222152
H  -1.73542948 -2.17524501  1.45684980
H   0.38070763  0.81671696  0.56475803
H  -0.57352562  1.92012353  1.57579226
N   3.62078100 -0.14321146 -0.01134092
C   2.53616844 -1.03733747  0.48604075
C   4.20820969 -0.72603998 -1.25131597
C   3.05895615  1.20293598 -0.31950145
C   4.67873207 -0.01477819  1.03034905
H   4.61357712 -1.70903612 -1.01792195
H   1.77153168 -1.11203787 -0.28611119
H   2.96182394 -2.01754961  0.69446177
H   2.11590691 -0.60983721  1.39468684
H   4.23551266  0.41593665  1.92638820
H   5.07816072 -1.00406215  1.24675126
H   5.46656924  0.63405330  0.65151074
H   2.28381780  1.09193316 -1.07559528
H   2.64024870  1.62583207  0.59188335
H   3.86129245  1.83746588 -0.69257341
H   3.42301643 -0.81082923 -2.00086036
H   4.99889029 -0.06746866 -1.60659184

