60
Total Energy                               R     -1.593910178677047E+03
C   0.25973282 -0.13558124 -0.88347528
C  -0.20996003 -0.57350342 -2.28134362
C  -0.41541279  1.21323708 -0.54231320
N  -0.10419631 -1.25136145  0.01709251
O  -1.49491726 -1.38327830  0.05358550
C   0.42769087 -1.20596624  1.39698354
C  -0.22364107 -0.13845269  2.30471953
C   0.11860292 -2.59025041  1.99146018
C   1.93091320 -0.97653668  1.36351526
C   2.55175077 -0.36902309  0.23169515
C   1.76489735  0.06477034 -0.87706492
C   2.37422206  0.73159066 -1.91653421
C   3.75568245  0.95531778 -1.93204440
C   4.52502654  0.49621516 -0.89902351
N   5.96571501  0.70195920 -1.02791897
O   6.35163103  1.75444733 -1.50969582
O   6.71839609 -0.19360136 -0.68090963
C   3.96783880 -0.15430577  0.23773592
C   4.71977945 -0.51554117  1.38176221
C   4.09119902 -1.06606498  2.46496823
C   2.70536468 -1.30130309  2.45268166
H  -1.27877377 -0.77933807 -2.23765260
H   0.30453352 -1.48804430 -2.59258462
H  -0.04143571  0.19545637 -3.03772419
H  -1.43805177  1.00969468 -0.22286084
H  -0.44035485  1.86763424 -1.41852651
H   0.10161364  1.75106205  0.25350994
H  -1.30213309 -0.15044299  2.13408001
H   0.15279680  0.86631030  2.10805274
H  -0.02795126 -0.36184839  3.35786220
H  -0.95466416 -2.76362708  1.91000483
H   0.40291533 -2.66495434  3.04311704
H   0.63862849 -3.37569525  1.43401519
H   1.79304574  1.09607247 -2.75377283
H   4.21528459  1.46318176 -2.77124252
H   5.78728063 -0.34637002  1.41131321
H   4.66823679 -1.32605075  3.34666259
H   2.25031332 -1.73895002  3.33333524
N  -4.56127439 -1.82547187 -0.96724643
C  -3.62399676 -2.78569669 -1.62180091
C  -5.95652786 -2.09593542 -1.40189114
C  -4.44958282 -1.97185186  0.51433444
C  -4.17159277 -0.43420905 -1.34139883
H  -6.01781377 -1.97626456 -2.48272443
H  -3.92290896 -3.79799955 -1.35012448
H  -3.69382061 -2.65415787 -2.70135644
H  -2.62042828 -2.55286241 -1.24838997
H  -3.15525788 -0.27550914 -0.97871660
H  -4.22234228 -0.33879030 -2.42558690
H  -4.86833850  0.25746591 -0.87188003
H  -4.72909328 -2.99037857  0.78299881
H  -3.41284056 -1.76544613  0.78976927
H  -5.13045149 -1.26300075  0.98414805
H  -6.22118171 -3.11498111 -1.12289402
H  -6.62221405 -1.38820066 -0.90949585
B  -3.57722078  2.94636726  0.76323113
F  -3.62027449  2.86157543 -0.64446759
F  -3.64129314  1.65492324  1.32287172
F  -2.37958640  3.57631645  1.16083061
F  -4.67917918  3.70677603  1.21691877

