60
Total Energy                               R     -1.593812302219978E+03
C   0.33284402 -1.61631802 -1.41168900
C   1.12045071 -0.55261054 -2.19300679
C   0.26323305 -2.92053542 -2.22443702
N   1.09091912 -1.86694290 -0.16111753
O   2.30081698 -2.22371574 -0.32107876
C   0.45578559 -2.19296648  1.14280604
C   0.05985440 -3.68179576  1.14721061
C   1.49366590 -1.93100570  2.23670945
C  -0.79301677 -1.34760033  1.33398318
C  -1.53317688 -0.88082179  0.20922505
C  -1.05787146 -1.08071523 -1.11680984
C  -1.85186764 -0.73239551 -2.18490236
C  -3.09842508 -0.12606387 -1.99740390
C  -3.52022614  0.15552455 -0.72895086
N  -4.78485223  0.88399330 -0.61656881
O  -5.69795472  0.55058275 -1.35210160
O  -4.85835112  1.80359514  0.17952380
C  -2.78186570 -0.21680457  0.42520476
C  -3.24775743 -0.02430537  1.74868972
C  -2.50442103 -0.46782128  2.80499461
C  -1.28066750 -1.13019707  2.59798526
H   2.13149747 -0.90883248 -2.38926313
H   1.16880830  0.37733797 -1.62435951
H   0.63906949 -0.35078789 -3.15049979
H   1.27027595 -3.32108582 -2.35462314
H  -0.15665263 -2.72582710 -3.21302437
H  -0.35611658 -3.67213768 -1.73264796
H   0.92617507 -4.30076120  0.89964678
H  -0.73878676 -3.88697924  0.43180245
H  -0.29704056 -3.96151177  2.14117093
H   2.41521167 -2.46356132  2.00859862
H   1.13056851 -2.29387278  3.19801170
H   1.71352219 -0.86513651  2.32719711
H  -1.51265685 -0.89142036 -3.20101134
H  -3.69911584  0.15953405 -2.85223005
H  -4.19335296  0.46815131  1.92869346
H  -2.86439832 -0.32178881  3.81780206
H  -0.74124433 -1.48976907  3.46504168
N   4.78513110  0.91969659 -0.18040747
C   5.09589873 -0.26710877 -1.02757348
C   3.92220710  0.49544248  0.95928774
C   6.05038019  1.50909281  0.33983549
C   4.06244821  1.93656018 -0.99672380
H   3.00160550  0.08140669  0.55788243
H   5.65387860 -0.98549958 -0.42914919
H   4.15948868 -0.70998030 -1.36082965
H   5.69132165  0.05833722 -1.87907067
H   4.71149805  2.25471270 -1.81084064
H   3.15596374  1.48540722 -1.39385975
H   3.81306995  2.78330282 -0.35990939
H   6.55941903  0.76299416  0.94786302
H   6.67526370  1.79701837 -0.50408588
H   5.80690422  2.38256769  0.94253901
H   4.45388904 -0.26067439  1.53471380
H   3.71068531  1.36444777  1.57964594
B  -0.07466335  2.66111833  0.35925238
F  -0.76851555  2.41755835 -0.84289212
F   0.61836906  3.88955351  0.25505269
F  -0.98829460  2.72851106  1.43065367
F   0.85235854  1.62688425  0.59583394

