64
Total Energy                               R     -1.766254508049710E+03
C  -1.58488315 -1.69487341  0.26899171
C  -1.35589728 -2.14302070 -1.18256883
C  -2.52713649 -2.67426768  1.00322318
N  -0.24868858 -1.89565021  0.97038214
O   0.36492794 -2.86460354  0.71556398
C   0.27800144 -0.92897018  1.98992778
C  -0.69348398 -0.96718182  3.18718341
C   1.66016026 -1.38496922  2.41085414
C   0.21089912  0.42084093  1.29584730
C  -0.97321680  0.75924463  0.59018361
C  -1.97430323 -0.21370963  0.28585302
C  -3.20581534  0.21453880 -0.16607889
C  -4.34423798 -0.74855887 -0.39575092
O  -4.53163841 -1.35705006 -1.42265133
O  -5.09211333 -0.88158696  0.69402401
C  -3.42871521  1.59470118 -0.45555744
C  -4.75560695  2.05545181 -0.94562870
O  -5.72080814  1.33441274 -1.08390244
O  -4.79379821  3.35878836 -1.22039722
C  -2.41073823  2.49967754 -0.31707571
C  -1.16884151  2.11051413  0.21944797
C  -0.14045000  3.06033210  0.43266865
C   1.02817619  2.68268401  1.03068078
C   1.19332741  1.35838923  1.48593265
H  -1.07312237 -3.19422478 -1.21906780
H  -0.58397804 -1.53522420 -1.65447582
H  -2.28874377 -2.01642149 -1.72716270
H  -2.01417107 -3.62431528  1.15558201
H  -3.38390867 -2.88264259  0.36625401
H  -2.86955781 -2.28431225  1.95924473
H  -0.76909343 -1.97952493  3.58713736
H  -1.68618763 -0.58985357  2.94610974
H  -0.26017258 -0.31694820  3.94850554
H   1.61162761 -2.38603211  2.84030093
H   2.02614920 -0.71254114  3.18592792
H   2.35888479 -1.38858771  1.57470464
H  -5.81144673 -1.50755081  0.52281702
H  -5.68148779  3.59410205 -1.52438632
H  -2.55842409  3.53780477 -0.58630734
H  -0.30590693  4.08725852  0.12507925
H   1.82258807  3.40221395  1.19228745
H   2.10122699  1.10462779  2.01809540
N   5.02474515  1.63125495 -0.17785046
C   4.92604512  2.60817695  0.94322984
C   4.89187718  0.24731557  0.35884543
C   3.93794109  1.88828181 -1.16525264
C   6.34646256  1.77682526 -0.85045782
H   5.68748151  0.07683636  1.08230500
H   3.97569068  2.46347393  1.45226171
H   5.74862191  2.42992354  1.63357398
H   4.98824253  3.61637994  0.53752458
H   6.43508662  2.79275787 -1.23130697
H   7.13291954  1.57754181 -0.12467136
H   6.40095453  1.06181955 -1.66976378
H   2.97725459  1.77637814 -0.66795414
H   4.04745580  2.90215074 -1.54650291
H   4.02659616  1.16749042 -1.97552109
H   3.92086549  0.15347489  0.84009469
H   4.97539751 -0.45445933 -0.46707704
B   2.64273247 -1.97317763 -1.55429195
F   1.85964825 -2.92459805 -2.23809033
F   1.81092042 -0.94399680 -1.06202194
F   3.30625899 -2.59818400 -0.47873118
F   3.59352290 -1.42246114 -2.43870742

