31
Total Energy                               R     -5.391590016913210E+02
C  -1.01212979 -0.97669575 -0.02209495
C  -1.05614428 -2.11137194  1.00529879
C  -2.29071112 -1.05330129 -0.86895176
N  -0.81607025  0.30557495  0.70247025
O  -2.01887694  0.93227334  1.09833701
C   0.08049229  1.17071825 -0.09145459
C  -0.57061240  1.84908264 -1.31394605
C   0.64717755  2.27118484  0.80328040
C   1.12692127  0.14491919 -0.58172576
C   2.23783104 -0.16849762  0.41723294
N   3.22841535 -1.09196632 -0.15437806
C   0.24601682 -1.07549636 -0.91764127
H  -1.87746252 -1.95821982  1.71381738
H  -0.12117126 -2.15850756  1.57176613
H  -1.20913106 -3.08157777  0.51961275
H  -3.18706739 -1.05756264 -0.24347048
H  -2.28526395 -1.98276265 -1.44809672
H  -2.37587847 -0.22281833 -1.57249842
H  -1.48831028  2.37101435 -1.03138577
H  -0.81410741  1.14058404 -2.10841739
H   0.11570204  2.58938445 -1.73737222
H  -0.13340268  2.99588439  1.05406823
H   1.45049611  2.81448482  0.29530796
H   1.04274068  1.87037584  1.73979127
H   1.61053832  0.52522752 -1.48838083
H   1.80700521 -0.55258414  1.35052836
H   2.77038635  0.75181967  0.66705256
H   2.80830641 -2.00889866 -0.26570365
H   3.97579194 -1.21847118  0.51989187
H   0.76556181 -2.02632793 -0.76850593
H  -0.04318245 -1.04774339 -1.97133292

