31
Total Energy                               R     -5.390536924488456E+02
C  -1.00159638 -1.00942463 -0.06541707
C  -0.86958934 -2.01925771  1.07435425
C  -2.32586744 -1.21425966 -0.79819975
N  -0.94301003  0.36485412  0.48622379
O  -1.88581582  0.84072205  1.19457150
C   0.09372333  1.22793765 -0.12519075
C  -0.53254247  1.99233217 -1.29959349
C   0.62203462  2.21891947  0.90308324
C   1.10456444  0.17460671 -0.63108541
C   2.18767785 -0.17854059  0.38685356
N   3.12005738 -1.17705918 -0.14555176
C   0.20273257 -1.01666372 -1.02220600
H  -1.67423681 -1.88627601  1.80254677
H   0.08758031 -1.92142319  1.59102454
H  -0.93853699 -3.03323386  0.67235071
H  -3.16996287 -1.18024207 -0.10508079
H  -2.32280846 -2.19384225 -1.28334545
H  -2.47135274 -0.45111045 -1.56684301
H  -1.37952362  2.59098274 -0.95431818
H  -0.88385588  1.31854658 -2.08416121
H   0.20986963  2.66656559 -1.73396798
H  -0.15686348  2.93491006  1.17453802
H   1.45749095  2.77878004  0.47618295
H   0.96535329  1.72598501  1.81441352
H   1.60563692  0.56363225 -1.52164972
H   1.73259341 -0.49689936  1.33358416
H   2.76868360  0.71917493  0.60656564
H   2.66634084 -2.08398350 -0.17648656
H   3.88710212 -1.28026139  0.50986303
H   0.72224383 -1.97509143 -0.98256030
H  -0.14538207 -0.89045283 -2.04952385

