47
Total Energy                               R     -8.110520764271928E+02
C  -0.98464103  1.26040690 -0.54144868
C  -0.13868454  2.14037324  0.37726858
C  -1.33694214  1.99721370 -1.83513773
N  -0.25398116  0.00846776 -0.85971207
O   0.83535626  0.01471380 -1.50331437
C  -0.97617305 -1.25095138 -0.55234103
C  -0.12398343 -2.13322808  0.35831845
C  -1.32416963 -1.97868936 -1.85231907
C  -2.19586713 -0.69727917  0.14032783
C  -2.20068848  0.69257231  0.14619479
C  -3.24404161  1.39489222  0.73485939
C  -4.28768759  0.68272819  1.31999423
C  -4.28288901 -0.71226863  1.31386938
C  -3.23427501 -1.41197398  0.72269915
H   0.79971139  2.41161574 -0.11293858
H   0.08816458  1.62685337  1.31444202
H  -0.68143437  3.06004221  0.60960668
H  -0.42698088  2.30586782 -2.35562940
H  -1.92147846  2.89103806 -1.60292410
H  -1.92528181  1.36087859 -2.50092176
H   0.81192258 -2.40147792 -0.13797950
H  -0.66423749 -3.05456980  0.58989208
H   0.10750514 -1.62291675  1.29612378
H  -0.41239256 -2.27518797 -2.37667109
H  -1.91841645 -1.34102374 -2.51155181
H  -1.90118590 -2.87933113 -1.62771694
H  -3.24788691  2.48075199  0.73991145
H  -5.11036111  1.21654747  1.78476878
H  -5.10184801 -1.25586128  1.77385969
H  -3.23054132 -2.49784412  0.71823981
N   3.85791367 -0.00235051  0.47617177
C   2.74578383  0.02548325  1.46809632
C   5.16466001 -0.00839694  1.19155353
C   3.74157902 -1.23125361 -0.36147916
C   3.77043546  1.20428284 -0.39678217
H   5.23412300  0.89169325  1.80018593
H   2.82006734 -0.85600213  2.10260291
H   2.83383264  0.93035486  2.06705045
H   1.80319066  0.02172308  0.92827365
H   2.81327864  1.18648838 -0.91568303
H   3.84844696  2.09211403  0.22861112
H   4.59125083  1.17520438 -1.11182972
H   3.78864366 -2.10204767  0.29045467
H   2.78957686 -1.20070644 -0.88905330
H   4.56858551 -1.24698442 -1.06976087
H   5.21276341 -0.89396218  1.82319120
H   5.96611046 -0.02725775  0.45470002

