46
Total Energy                               R     -1.118992390878882E+03
C  -2.27924601 -0.96699731  1.15196806
C  -1.55263407 -2.17338892  1.76709438
C  -2.55180523  0.13750567  2.15407808
N  -1.36879552 -0.47070994  0.07829387
O  -0.39563475  0.15133809  0.26207690
C  -1.87404649 -0.87092565 -1.30182251
C  -2.37329845  0.41629563 -1.94948004
C  -0.77725691 -1.56826685 -2.07094129
O  -2.89334142 -1.76982588 -0.96463496
C  -3.47126337 -1.38222445  0.28478597
H  -0.62365558 -1.85438143  2.24123710
H  -1.34025745 -2.93968040  1.01987498
H  -2.21810747 -2.59137978  2.52382537
H  -1.63859237  0.42121482  2.67862563
H  -3.26687774 -0.24698568  2.88359846
H  -2.98342413  1.01294743  1.66624530
H  -1.53814136  1.09489001 -2.12449025
H  -3.12436417  0.91740578 -1.33696239
H  -2.81869217  0.13741475 -2.90554672
H   0.04142505 -0.87866131 -2.27333755
H  -1.19917299 -1.89444343 -3.02268528
H  -0.41286329 -2.43712778 -1.52194996
H  -3.98743042 -2.24737474  0.69239695
H  -4.17429272 -0.55670345  0.14915059
N   3.12928789 -1.46337766  0.06217755
C   1.99021393 -1.96705746  0.88200494
C   2.78445444 -0.12849502 -0.50741633
C   4.34110216 -1.33468065  0.91981105
C   3.40034600 -2.42181815 -1.04650318
H   1.90672693 -0.23553899 -1.13907876
H   1.77078030 -1.23943397  1.66081151
H   1.12860043 -2.10346373  0.23240431
H   2.27364684 -2.91974849  1.32630605
H   3.64208461 -3.39299829 -0.61775286
H   2.50967070 -2.49545819 -1.66872336
H   4.23921936 -2.04996020 -1.63224044
H   4.12370355 -0.64037350  1.72955087
H   4.59177862 -2.31473468  1.32195496
H   5.16043689 -0.95688805  0.31074470
H   2.58164589  0.55876241  0.31084660
H   3.62853673  0.22609163 -1.09664949
B   0.48567179  3.16178452  0.03662087
F   1.20122663  2.60676016  1.11825476
F  -0.89299511  2.91016840  0.20701626
F   0.70542588  4.55441368 -0.00602513
F   0.92725636  2.58027124 -1.16986489

