46
Total Energy                               R     -1.119183777075031E+03
C   2.08643231 -0.39782512  1.28308122
C   1.80890552  0.91932810  2.00924596
C   1.41656404 -1.57164640  1.97567246
N   1.64235993 -0.29576764 -0.11904344
O   0.43547648 -0.36041618 -0.49379329
C   2.75367502 -0.00417648 -1.05297757
C   2.94294851 -1.17332485 -2.00831424
C   2.52672535  1.31118447 -1.77171958
O   3.85392931  0.13380054 -0.16675442
C   3.57769819 -0.61043310  1.02371624
H   0.73624601  1.11946092  2.04123390
H   2.30464516  1.75770178  1.51381205
H   2.17679286  0.85436807  3.03630523
H   0.34312363 -1.39618647  2.07599928
H   1.83693032 -1.69097158  2.97727946
H   1.57052330 -2.50019492  1.42126968
H   2.03874917 -1.32356869 -2.60235430
H   3.15771524 -2.09285035 -1.45924251
H   3.77312253 -0.96040948 -2.68498948
H   1.62928935  1.25221199 -2.39075468
H   3.37967141  1.52517572 -2.41914417
H   2.41079404  2.12467092 -1.05269317
H   4.21076036 -0.21473918  1.81615157
H   3.80245870 -1.67117867  0.86843832
N  -1.84983074  2.59577251  0.02380183
C  -0.41080571  2.92520440 -0.18615123
C  -2.00654483  1.85847430  1.31002423
C  -2.65129864  3.85042620  0.06745995
C  -2.32435221  1.73713976 -1.09936245
H  -1.44297718  0.93026048  1.25069103
H  -0.06863580  3.54896815  0.63791937
H   0.14842366  1.99470714 -0.21692931
H  -0.30811991  3.45736181 -1.13035755
H  -2.22721837  2.29734108 -2.02806070
H  -1.71116923  0.84007291 -1.13500613
H  -3.36650003  1.47565890 -0.92421531
H  -2.29833513  4.46149354  0.89655633
H  -2.52103414  4.38226615 -0.87363119
H  -3.69909716  3.59174500  0.21056752
H  -1.62949477  2.48350622  2.11780054
H  -3.06315097  1.64488336  1.46110692
B  -2.49484484 -2.32177410 -0.16481878
F  -2.63013815 -1.34891382  0.84632984
F  -1.32031141 -3.07045001  0.05403694
F  -3.61243862 -3.18467160 -0.13673503
F  -2.42510347 -1.68886467 -1.42325794

