46
Total Energy                               R     -7.521681785277738E+02
C  -1.02808002  1.50833528 -0.01895548
C  -1.32078558  2.43069271  1.17506164
C  -0.21566708  2.29508420 -1.05275250
N  -0.30416229  0.25970198  0.32322040
O   0.64648468  0.39519741  1.33128033
C  -1.30273273 -0.81417937  0.55594275
C  -0.71924089 -2.14477015  0.06973608
C  -1.73200022 -0.97691055  2.02401109
C  -2.46262279 -0.33214236 -0.29537636
C  -3.59917252 -1.23583428 -0.65645624
N  -4.65843735 -0.54897266 -1.39465298
C  -2.30495950  0.95436606 -0.59788102
H  -0.38522078  2.75196090  1.63917662
H  -1.92199379  1.93456065  1.93967037
H  -1.86817772  3.31974372  0.84235965
H   0.76115521  2.56583189 -0.63828835
H  -0.72592776  3.21992005 -1.34499563
H  -0.04859744  1.69716167 -1.95381430
H   0.20410884 -2.36234108  0.61582115
H  -0.47969240 -2.10103442 -0.99715633
H  -1.41001318 -2.97914672  0.23303478
H  -0.84682476 -1.14482625  2.64149880
H  -2.40731354 -1.83081609  2.13973032
H  -2.24391158 -0.09023024  2.40433110
H  -3.96622405 -1.71711337  0.26366144
H  -3.22082234 -2.05005536 -1.28560699
H  -5.07757733  0.16352569 -0.80517617
H  -5.39775239 -1.20926753 -1.60915504
H  -2.99543493  1.56101508 -1.17707664
N   3.49366049 -0.30389580 -0.31295919
C   4.82049699 -0.59114149 -0.91645091
C   3.19856971 -1.28143204  0.77571111
C   3.47386284  1.07363853  0.26165705
C   2.42545779 -0.40557390 -1.34991910
H   3.18299659 -2.28310830  0.34662754
H   5.58381718 -0.50998879 -0.14375202
H   4.81015600 -1.60029338 -1.32643971
H   5.01228290  0.13199025 -1.70807167
H   2.63696736  0.32014204 -2.13525708
H   2.44261634 -1.41352417 -1.76454947
H   1.46176690 -0.19720571 -0.87560027
H   4.25945939  1.14485104  1.01405551
H   3.66189443  1.78627292 -0.54109038
H   2.48052425  1.21115796  0.70450512
H   3.98602997 -1.20999294  1.52607402
H   2.22364926 -0.99939951  1.19001474

