46
Total Energy                               R     -7.520740368978070E+02
C  -1.03894215  1.49422351  0.04401555
C  -1.37722328  2.64109201  0.99872576
C   0.08917434  1.89453235 -0.90606167
N  -0.65435438  0.28938995  0.81133329
O   0.30974160  0.28154298  1.63128492
C  -1.59910352 -0.84401359  0.68181323
C  -0.85734811 -2.08957854  0.19547777
C  -2.27128708 -1.10721762  2.03220637
C  -2.55496474 -0.28340023 -0.35234248
C  -3.68669529 -1.11174661 -0.87335595
N  -4.51291781 -0.38561671 -1.83369865
C  -2.24741297  0.96852521 -0.67945072
H  -0.49321038  2.93665896  1.56997561
H  -2.16514511  2.34865245  1.69755450
H  -1.72358876  3.50831792  0.43003788
H   0.98561220  2.16570085 -0.34214087
H  -0.21332281  2.76058383 -1.50090905
H   0.33500531  1.07676847 -1.58823023
H  -0.06775276 -2.35553594  0.90251506
H  -0.40802139 -1.92336528 -0.78703738
H  -1.54591446 -2.93514637  0.12296495
H  -1.51712332 -1.36650859  2.77948635
H  -2.97283863 -1.94100768  1.95373259
H  -2.81646600 -0.22470657  2.37700672
H  -4.26185678 -1.49364174 -0.01654245
H  -3.27500266 -1.99453298 -1.37501592
H  -5.00045038  0.37117509 -1.36417234
H  -5.23122287 -1.00666596 -2.18920480
H  -2.78277735  1.58411533 -1.39309565
N   3.72468447 -0.29037924 -0.32598955
C   3.58347853  0.47479189  0.94680579
C   4.98103794 -1.09056949 -0.28956025
C   2.55524876 -1.20199306 -0.48774930
C   3.77320577  0.65945068 -1.47394876
H   5.82340650 -0.41249959 -0.16240483
H   3.58038725 -0.22980879  1.77684699
H   4.42630560  1.15859016  1.03514984
H   2.64276304  1.02153713  0.92388913
H   2.85606919  1.24470195 -1.48199100
H   4.63521820  1.31270456 -1.35052028
H   3.86333927  0.08826799 -2.39635727
H   2.52578178 -1.88471850  0.35930582
H   1.65018753 -0.60112062 -0.51472168
H   2.67236719 -1.75680438 -1.41738678
H   4.92782267 -1.78570677  0.54667849
H   5.07559997 -1.63668585 -1.22666033

