54
Total Energy                               R     -1.291155585783046E+03
C   1.33280583  0.18058917  1.03611184
C   1.27491106  0.59262841  2.50806190
C   0.20327324  0.90720429  0.28450323
N   1.29401540 -1.30487159  0.94805730
O   0.00490487 -1.83082945  0.97406249
C   2.09850880 -1.75148142 -0.22188928
C   2.74685617 -3.09856798  0.10520063
C   1.30581587 -1.90098818 -1.53269710
C   3.10244900 -0.62902262 -0.32750688
C   2.66691938  0.47663720  0.39509134
C   3.40369105  1.65068783  0.43025477
C   4.61092660  1.72861678 -0.27840141
N   5.40033721  2.88369652 -0.20899090
C   5.04705713  0.61349311 -1.00677811
C   4.29651745 -0.56077953 -1.03111811
H   0.34246734  0.23340088  2.95425244
H   1.30591873  1.68120406  2.62505620
H   2.11068047  0.16168930  3.06736472
H  -0.76392922  0.59777051  0.68102228
H   0.21415225  0.69779097 -0.78672147
H   0.30153536  1.99000330  0.41398209
H   1.97165488 -3.84725663  0.29735813
H   3.37591528 -3.02068453  0.99696017
H   3.36613637 -3.46010788 -0.72305880
H   0.51415315 -2.64332206 -1.41008558
H   1.97253050 -2.23192240 -2.33641185
H   0.84536553 -0.96274982 -1.84808467
H   3.05744456  2.51156155  0.99780252
H   4.87923407  3.72776372 -0.01458145
H   6.00783439  3.01732360 -1.00571570
H   5.98338228  0.67201001 -1.55560338
H   4.65535341 -1.41163652 -1.60479263
N  -3.08424451 -2.05805967 -0.09788992
C  -4.49701409 -2.19104121 -0.53835949
C  -2.29876998 -1.29323968 -1.11035782
C  -3.01976976 -1.33310488  1.20555191
C  -2.46595731 -3.40605557  0.06637835
H  -2.34144895 -1.82940077 -2.05828402
H  -4.92355448 -1.19595903 -0.65415730
H  -4.52122775 -2.72077554 -1.48967056
H  -5.05036162 -2.74995173  0.21530239
H  -3.02939836 -3.95704917  0.81908529
H  -2.51431094 -3.92738532 -0.88948845
H  -1.42984888 -3.25362479  0.37927712
H  -3.45460912 -0.34369467  1.07191804
H  -3.59184196 -1.89637378  1.94267125
H  -1.96479218 -1.26655176  1.48525150
H  -2.73878060 -0.30330246 -1.21738731
H  -1.27763023 -1.23676948 -0.72765071
B  -3.59448404  2.56126894 -0.28739428
F  -4.68229355  1.66751979 -0.39404669
F  -2.64210769  2.26378174 -1.28395483
F  -4.05735679  3.88344813 -0.46173000
F  -3.00590003  2.43519259  0.98710389

