54
Total Energy                               R     -1.291065369961812E+03
C  -0.52649357 -1.62390659 -1.33617001
C  -0.98162426 -2.83417729 -2.16018633
C   0.21653233 -0.63096973 -2.22267443
N   0.33690293 -2.07565972 -0.21165087
O   1.45018540 -2.64398604 -0.41106001
C  -0.34483174 -2.12061563  1.11062787
C  -0.68878165 -3.57096149  1.46836560
C   0.53921742 -1.50782572  2.19259332
C  -1.56726072 -1.29594240  0.79633060
C  -1.66457280 -1.00921657 -0.55963262
C  -2.70473970 -0.24688386 -1.06459780
C  -3.67918231  0.24784895 -0.18881626
N  -4.76034686  0.98300060 -0.67600292
C  -3.58222571 -0.04980135  1.17916899
C  -2.53155347 -0.81476509  1.67056965
H  -0.11697187 -3.33546332 -2.60316105
H  -1.63871104 -2.50222524 -2.96824023
H  -1.52841410 -3.55257373 -1.54562179
H   1.08372306 -1.10666512 -2.68604321
H   0.54575136  0.24161366 -1.65863784
H  -0.44684496 -0.28991542 -3.02142829
H   0.22366961 -4.16489541  1.56885970
H  -1.32455103 -4.02903232  0.70763210
H  -1.22242923 -3.59618845  2.42223031
H   1.45495776 -2.09009436  2.31870096
H   0.00266615 -1.51521230  3.14490634
H   0.80282825 -0.47551379  1.95804750
H  -2.76575230 -0.01792587 -2.12514317
H  -4.57855735  1.46698794 -1.54435329
H  -5.18113242  1.60399024  0.00121206
H  -4.33572523  0.33685921  1.85959131
H  -2.46940908 -1.02122054  2.73516640
N   3.87476890  0.38157517 -0.00279496
C   4.02035649 -0.67224494  1.04151475
C   5.02274140  1.32754296  0.07361639
C   3.84401337 -0.26455915 -1.34627573
C   2.60101197  1.12666174  0.21703413
H   5.03305829  1.78474015  1.06161584
H   4.97143332 -1.18103699  0.89143398
H   3.99596930 -0.19988826  2.02218656
H   3.19743964 -1.37712718  0.93637115
H   1.77502158  0.42239104  0.16304571
H   2.63404665  1.59309286  1.19960760
H   2.50250588  1.88363710 -0.55864949
H   4.79161440 -0.77644940 -1.50744276
H   3.02327341 -0.97973032 -1.36646781
H   3.69875350  0.50616988 -2.10146721
H   5.94456792  0.77314345 -0.09463486
H   4.89798824  2.09066678 -0.69281010
B  -0.50250730  3.14972470  0.14066637
F  -0.41472050  2.03725720  0.99926809
F   0.53916864  4.05580962  0.44161456
F  -0.38321465  2.73173821 -1.20066278
F  -1.74730389  3.78937443  0.32344394

