54
Total Energy                               R     -1.290875696313165E+03
C  -1.39991424 -1.14634945 -0.28658010
C  -1.15012016 -2.55028802  0.25631257
C  -0.78587712 -0.94551859 -1.67719361
N  -0.72913490 -0.15917874  0.63999230
O   0.38988030 -0.26107246  0.97376640
C  -1.62763765  0.95849979  1.11603250
C  -1.53631012  1.02033232  2.63851838
C  -1.11794157  2.24769412  0.45948876
C  -2.94449025  0.47791111  0.57528487
C  -2.82406983 -0.67263422 -0.18918838
C  -3.92024772 -1.27214894 -0.78313637
C  -5.18612589 -0.69826715 -0.60459702
N  -6.31432933 -1.30618369 -1.13259211
C  -5.30381560  0.47073288  0.16857573
C  -4.19332263  1.05727718  0.75564856
H  -0.08777498 -2.79712464  0.22383850
H  -1.68778401 -3.24996834 -0.38575829
H  -1.52457424 -2.65263865  1.27647289
H   0.27539725 -1.19512766 -1.67054657
H  -0.92339086  0.07707116 -2.02947240
H  -1.30580608 -1.62474590 -2.35517059
H  -0.53321267  1.30597935  2.95999050
H  -1.81540279  0.06624832  3.08983418
H  -2.23826147  1.78484801  2.97591320
H  -0.11522348  2.49017949  0.81194793
H  -1.80133449  3.04526566  0.75734167
H  -1.12198418  2.16995947 -0.62810827
H  -3.80881178 -2.17405391 -1.37752207
H  -6.15384179 -1.90543236 -1.92943927
H  -7.11167265 -0.70124652 -1.26731165
H  -6.28467519  0.91570939  0.30590772
H  -4.30602647  1.96013986  1.34729823
N   4.19322852 -1.67017740  0.22688087
C   5.11746087 -0.90971362 -0.66237780
C   2.93310607 -1.97117147 -0.51144765
C   4.84051635 -2.94387311  0.64860595
C   3.87729465 -0.84647376  1.42885963
H   2.47248057 -1.02962953 -0.80337708
H   5.34166548 -1.51996941 -1.53565036
H   4.62936123  0.01605237 -0.96155956
H   6.03054975 -0.69234604 -0.11037226
H   4.80419038 -0.63808632  1.96091344
H   3.41462095  0.08327518  1.10339034
H   3.19628444 -1.40674213  2.06742579
H   5.05965494 -3.53438653 -0.23955502
H   5.76071493 -2.70895293  1.18098512
H   4.15614657 -3.48444333  1.30044400
H   3.17817816 -2.56248232 -1.39230397
H   2.27197087 -2.53272107  0.14651946
B   2.39827940  2.26664434 -0.74894445
F   2.51914410  2.28550449  0.65559822
F   3.68286596  2.17974483 -1.32760510
F   1.63285882  1.14814563 -1.14292656
F   1.76499129  3.44698856 -1.18554303

