52
Total Energy                               R     -3.809090974062177E+03
C   1.01143157  0.53542177 -1.58173768
C   2.12017150 -0.31554949 -2.19148494
C   0.21153291  1.29120397 -2.65195798
N   1.62285260  1.59090098 -0.68791129
O   2.45670377  2.32848546 -1.05325452
C   1.02418598  1.65070808  0.69967420
C   2.14275682  1.63347151  1.73499875
C   0.20459398  2.94855836  0.75639664
C   0.16227322  0.42139402  0.66565322
C   0.14581143 -0.18013439 -0.58312215
C  -0.61639031 -1.31149711 -0.82753188
C  -1.36491056 -1.81752102  0.22657849
Br  -2.43854235 -3.36199863 -0.06590649
C  -1.35680975 -1.22977867  1.48874289
C  -0.58332150 -0.09676453  1.71225429
H   2.78492258  0.29526864 -2.80387870
H   1.63915335 -1.05520924 -2.83433107
H   2.69040057 -0.83188555 -1.42113017
H   0.88563670  1.82852399 -3.32131006
H  -0.49775893  1.98964353 -2.20594201
H  -0.33935283  0.54602156 -3.22821414
H   2.79615293  2.49913652  1.61724668
H   2.72430324  0.71563256  1.67161809
H   1.67092612  1.68800863  2.71766178
H   0.85786141  3.81851050  0.66797970
H  -0.28734339  2.97279424  1.73002596
H  -0.55654180  2.97321889 -0.02449056
H  -0.62539189 -1.77697646 -1.80619060
H  -1.94683666 -1.64834117  2.29522129
H  -0.57178337  0.36895631  2.69140928
N  -4.13493501  1.76834188  0.13484978
C  -3.08787323  1.62086915 -0.91584655
C  -5.23931545  2.62763345 -0.37784145
C  -4.67220122  0.42414701  0.48960792
C  -3.53281607  2.39600410  1.34622281
H  -4.83058645  3.60287380 -0.63694808
H  -3.53247151  1.15084570 -1.79137489
H  -2.70731198  2.60867974 -1.17010586
H  -2.28937208  0.99758305 -0.51985813
H  -2.73014702  1.75427804  1.70564578
H  -3.14244029  3.37539312  1.07512072
H  -4.30546685  2.49537542  2.10700668
H  -5.08937484 -0.03365207 -0.40561657
H  -3.85656062 -0.18230226  0.87830209
H  -5.44455552  0.54497056  1.24717007
H  -5.67067749  2.15409419 -1.25807064
H  -5.99219890  2.72972012  0.40209685
B   4.93462710 -0.57653417  0.42135919
F   3.74898098 -1.28065057  0.73019729
F   5.62224788 -0.27344242  1.61391433
F   5.74812956 -1.37387537 -0.40827436
F   4.60940746  0.62128830 -0.24975783

