52
Total Energy                               R     -3.809373282883956E+03
C   0.60895499 -0.42475274  1.09018768
C   0.66704192 -0.12466553  2.58854432
C  -0.31500231  0.60804561  0.42052565
N   0.21791355 -1.84704339  0.89485639
O  -1.15639961 -2.05637658  0.92704486
C   0.87509797 -2.37750954 -0.32984734
C   1.17641511 -3.86395334 -0.13165527
C   0.06598929 -2.21479186 -1.62935823
C   2.12252564 -1.53044080 -0.37531776
C   1.96995603 -0.41293269  0.43895616
C   2.97641177  0.53621812  0.54732766
C   4.14156295  0.33344222 -0.18590988
Br   5.54938468  1.62085875 -0.06020650
C   4.31495102 -0.77618664 -1.00489777
C   3.29090726 -1.71868199 -1.09864693
H  -0.32085243 -0.28024860  3.03258328
H   0.96303789  0.91187439  2.78158018
H   1.37757278 -0.78671876  3.09199630
H  -1.32499399  0.51597547  0.82102609
H  -0.36560238  0.48213867 -0.66207961
H   0.04671488  1.62161274  0.62216733
H   0.24166301 -4.40941277  0.02975163
H   1.81863371 -4.01902974  0.74013771
H   1.67236579 -4.29582317 -1.00737585
H  -0.88552561 -2.74265109 -1.53982353
H   0.62252151 -2.63839975 -2.47194829
H  -0.14549401 -1.16956428 -1.86130292
H   2.85940081  1.40773125  1.18291203
H   5.23375794 -0.91212977 -1.56401032
H   3.42189686 -2.58819088 -1.73609435
N  -4.23202961 -1.45711365 -0.04588455
C  -5.63849092 -1.21371615 -0.45821843
C  -3.29312692 -0.86959113 -1.04649278
C  -3.97147605 -0.82746968  1.28209617
C  -3.97099557 -2.92246716  0.05432855
H  -3.47560477 -1.34295423 -2.01113349
H  -5.80254808 -0.13937598 -0.52503422
H  -5.80544353 -1.67868933 -1.42898415
H  -6.30461523 -1.64976538  0.28520045
H  -4.64441433 -3.34489542  0.79961031
H  -4.16246011 -3.37539791 -0.91820273
H  -2.92599844 -3.04981886  0.34714084
H  -4.14282606  0.24446165  1.19618104
H  -4.65856330 -1.25927123  2.00963543
H  -2.93122561 -1.04099005  1.54098320
H  -3.48144854  0.20032714 -1.11172847
H  -2.28504320 -1.07850995 -0.68183229
B  -3.69588415  3.07375800 -0.32085484
F  -4.90244949  2.41587943 -0.64500553
F  -2.68196411  2.65988053 -1.20894474
F  -3.87838719  4.46859620 -0.43485787
F  -3.32811827  2.75516622  1.00228076

