52
Total Energy                               R     -3.809278659389339E+03
C   0.79160106  0.15359138 -1.04974057
C   1.55501161 -0.96048576 -1.76409314
C   0.31680680  1.21958777 -2.03852246
N   1.65203795  0.77725636 -0.01428625
O   2.70866932  1.40493109 -0.31361079
C   1.10153847  0.78063281  1.36396500
C   2.07710102  0.08813659  2.31505377
C   0.82525196  2.21761131  1.80752135
C  -0.16170828 -0.01274827  1.14804787
C  -0.32775392 -0.36627521 -0.18423419
C  -1.42351839 -1.10899235 -0.59787980
C  -2.35221868 -1.47982452  0.36506665
Br  -3.86621113 -2.51276812 -0.16690656
C  -2.21003983 -1.12796178  1.70359978
C  -1.10035322 -0.38702092  2.09809996
H   2.43784954 -0.55499861 -2.26457374
H   0.91424383 -1.42008669 -2.52081313
H   1.87171696 -1.73497370 -1.06159838
H   1.16938007  1.63548315 -2.58095333
H  -0.20256434  2.02923351 -1.52164280
H  -0.36909967  0.77304633 -2.76240842
H   3.03499589  0.61445620  2.32411550
H   2.24708736 -0.94958152  2.01863180
H   1.67201185  0.09653899  3.33004555
H   1.76039623  2.77926901  1.87143268
H   0.35595184  2.21530950  2.79446438
H   0.15707175  2.72179533  1.10639438
H  -1.55221886 -1.38272145 -1.63906258
H  -2.95285579 -1.42499813  2.43454265
H  -0.98171453 -0.10899701  3.14041475
N   5.78493050 -0.45029906 -0.25162515
C   4.72034653 -1.40446777  0.17140481
C   7.10305373 -1.14497459 -0.25383900
C   5.48063821  0.05201345 -1.62333097
C   5.82495001  0.69900648  0.69915026
H   7.30982465 -1.50499978  0.75270758
H   4.69965187 -2.23790574 -0.52912013
H   4.94800968 -1.76053417  1.17481092
H   3.76823338 -0.88201390  0.16458600
H   4.85365375  1.19122005  0.68673175
H   6.04595907  0.31892854  1.69533540
H   6.60439576  1.38826158  0.37819110
H   5.44524731 -0.79680844 -2.30432870
H   4.51871435  0.56168992 -1.59871308
H   6.26800336  0.74162308 -1.92334894
H   7.05538412 -1.98046594 -0.95038333
H   7.87051648 -0.43863226 -0.56573570
B  -3.67291899  2.22131332 -0.39932745
F  -2.47928875  2.52872984  0.28418071
F  -4.35012942  3.42067379 -0.71883243
F  -3.37629677  1.52566419 -1.58939823
F  -4.49653365  1.42671644  0.42374935

