49
Total Energy                               R     -1.158507998342060E+03
C  -1.31145652 -1.41673079 -1.10434486
C  -0.41170476 -0.46836106 -1.89368033
C  -0.87021320 -2.86406190 -1.31059335
N  -1.24143179 -1.07732391  0.33893749
O  -0.19210881 -1.28278252  1.02343227
C  -2.54893661 -0.79937713  0.97352611
C  -3.09596792 -2.09986844  1.57530301
C  -2.40909913  0.26250686  2.05219325
C  -3.38904300 -0.37697439 -0.24802662
O  -3.38714753  1.02146059 -0.49897524
C  -2.80561740 -1.20441499 -1.40463177
H   0.62265190 -0.54130106 -1.55190638
H  -0.73617082  0.56817078 -1.79655386
H  -0.44102968 -0.73855431 -2.95238626
H   0.18513830 -2.99304697 -1.05738396
H  -1.00541298 -3.13841424 -2.35996183
H  -1.46428427 -3.54652550 -0.69744513
H  -2.39212462 -2.49461396  2.31216881
H  -3.26172492 -2.86514865  0.81357705
H  -4.04588479 -1.90167436  2.07763704
H  -1.83005002 -0.12623763  2.89275301
H  -3.39987826  0.53718050  2.42150600
H  -1.91493956  1.16153034  1.68319759
H  -4.43679158 -0.62577083 -0.08032769
H  -2.48877021  1.37452861 -0.55099370
H  -2.96086125 -0.69839308 -2.35826339
H  -3.31879891 -2.16734086 -1.45263012
N   3.78818877 -0.89586488  0.19509908
C   3.00908405 -2.10945282 -0.18412012
C   4.70191169 -1.22578570  1.32493162
C   4.58840670 -0.43654361 -0.97487435
C   2.85406446  0.19023149  0.61102228
H   4.10427033 -1.56555317  2.16901459
H   3.70693912 -2.89485321 -0.46974814
H   2.41574642 -2.42633964  0.67099190
H   2.36195843 -1.86211562 -1.02295830
H   2.18617185  0.41345949 -0.21640738
H   2.28700240 -0.15016532  1.47430568
H   3.43956283  1.07149287  0.86755898
H   5.26320836 -1.23644365 -1.27471924
H   3.90780180 -0.19425599 -1.78925117
H   5.15594680  0.44625368 -0.68556378
H   5.38365680 -2.01239966  1.00559409
H   5.26030512 -0.33139170  1.59580205
B   0.21286505  2.92832805 -0.09639685
F  -1.12249929  2.71181883 -0.53756499
F   0.46235337  2.13843343  1.03806036
F   1.10204204  2.58166866 -1.13000989
F   0.36812808  4.28943182  0.22731857

