33
Total Energy                               R     -5.980311089929648E+02
C   0.98379508  0.98254084 -0.46339965
C  -0.46756882  1.75521785  1.49915188
C  -0.95390061  2.54473911 -0.82943505
N  -1.36914710  0.21450981 -0.17230390
O   2.71435544 -0.72270834 -0.48187182
C   1.44378511 -0.37861082  0.04531177
C   0.47397267 -1.44313781 -0.43181035
C   3.79809403 -0.05684301  0.14465261
C  -1.16362870 -1.52132046  1.53439116
C  -0.97024400 -1.24064703  0.03265927
O  -2.49451173  0.44865170 -0.42844942
C  -1.92871595 -2.09762349 -0.78198015
C  -0.41563508  1.39011512  0.00402688
H   3.79036048  1.01854288 -0.05992988
H   0.02056419  1.02435777  2.14021834
H   0.06326890  2.70364390  1.59789477
H   1.65254225  1.77880560 -0.13059830
H  -0.21356156  3.34504650 -0.78339118
H   1.00440660  0.96696932 -1.55747182
H   4.71208655 -0.48616554 -0.26533408
H   0.49491057 -1.46962699 -1.52563567
H  -1.57234971 -3.12677682 -0.71611234
H   3.77881133 -0.21724022  1.22860302
H   0.78167336 -2.42661437 -0.07037243
H   1.51190685 -0.38020812  1.13911157
H  -0.41776531 -1.03869981  2.16190816
H  -1.06497209 -2.60127750  1.65658350
H  -1.08263983  2.25450073 -1.87394135
H  -2.94474180 -2.06118750 -0.38975068
H  -2.16235132 -1.22513293  1.85908716
H  -1.93187981 -1.80069543 -1.83255293
H  -1.49821946  1.89861734  1.82773198
H  -1.89649240  2.92744388 -0.43876092

