33
Total Energy                               R     -5.982182788312625E+02
C  -0.97435096 -1.21319889  0.00631123
C  -0.44917921  1.79700185  1.44326608
C  -1.16603730 -1.55856716  1.48966295
N  -1.35698022  0.21263274 -0.22096149
O  -2.60442579  0.47960220 -0.16278021
C  -0.42436603  1.36349498 -0.02921303
C  -1.89431489 -2.09445068 -0.83812821
C  -0.91251972  2.51995154 -0.90113869
C   0.98874618  0.97157881 -0.47659673
C   1.43806398 -0.38370268  0.04900550
O   2.72991074 -0.73645545 -0.43666758
C   3.79074769 -0.04342058  0.19540551
C   0.47302526 -1.44282018 -0.44272988
H  -1.47606065  1.98076344  1.76802473
H   0.11378695  2.72764601  1.55073864
H  -0.00355176  1.05695468  2.10890269
H  -2.17423814 -1.29122270  1.81477314
H  -0.44812297 -1.05209563  2.13586396
H  -1.03842166 -2.63553791  1.62530722
H  -2.92487319 -2.06379214 -0.48215147
H  -1.54504488 -3.12789807 -0.77445300
H  -1.87509020 -1.79232702 -1.88819469
H  -1.86782650  2.91445945 -0.55275442
H  -1.01856588  2.21017481 -1.94378477
H  -0.17676599  3.32677770 -0.85838117
H   1.02604062  0.93663921 -1.57128405
H   0.51298483 -1.45869066 -1.53769457
H   0.78238348 -2.42988968 -0.08898698
H   4.72032621 -0.47723800 -0.17394920
H   3.78248625  1.02538620 -0.04244478
H   3.74430535 -0.16735779  1.28391875
H   1.66330831  1.76729431 -0.15142507
H   1.47903181 -0.37885133  1.14521946

