53
Total Energy                               R     -1.188192596185459E+03
C   0.59025400 -0.69810303 -1.38017276
C   1.37664750 -1.77641505 -0.63754144
C   0.44962184 -1.03785825 -2.86465052
N   1.25214743  0.62177830 -1.22568096
O   2.40503653  0.85101112 -1.69674228
C   0.41018334  1.70232998 -0.65433355
C   1.07119427  2.28107385  0.59499096
C   0.16907839  2.78503837 -1.70678298
C  -0.84017480  0.92319764 -0.34241492
C  -0.73850970 -0.40244302 -0.73757375
C  -1.78615192 -1.28659317 -0.53230446
C  -2.94931208 -0.82227064  0.06984399
C  -4.05969617 -1.81368985  0.23664391
O  -4.00773360 -2.75795902  0.99234384
O  -5.06836260 -1.59854217 -0.60488332
C  -3.05536006  0.51672485  0.47471234
C  -4.27474050  0.97600980  1.18689704
O  -5.07936147  0.22730624  1.70227501
O  -4.39795436  2.30198319  1.22166394
C  -1.99111944  1.39306332  0.26469652
H   2.38132426 -1.86556575 -1.05677984
H   0.87283036 -2.73912277 -0.75076801
H   1.45190555 -1.54743097  0.42771430
H   1.43635345 -1.15407523 -3.31865329
H  -0.09580336 -0.25444643 -3.39582002
H  -0.09361609 -1.97909167 -2.97496095
H   2.03766707  2.72242561  0.34137832
H   1.21958346  1.51142167  1.35553529
H   0.43568781  3.06502297  1.01341713
H  -0.50457593  3.54390287 -1.30205111
H  -0.28198722  2.36216435 -2.60743759
H   1.11115468  3.26869169 -1.97478133
H  -1.71049983 -2.32221916 -0.84671185
H  -5.75481148 -2.26880290 -0.47138000
H  -5.19222239  2.54115875  1.71983315
H  -2.06144091  2.42453784  0.58843367
N   5.09263910 -0.47141641  1.04903860
C   3.93297182  0.41789748  1.34238403
C   5.35428826 -0.47821382 -0.41868460
C   6.29784970  0.02997099  1.76737910
C   4.78078786 -1.85710484  1.50237853
H   4.47611087 -0.87062907 -0.92684419
H   4.16746808  1.42292480  0.99705204
H   3.06246168  0.03311690  0.81883924
H   3.75670730  0.41860937  2.41687875
H   4.59162246 -1.83940583  2.57422136
H   3.89756859 -2.20713504  0.97029990
H   5.63235707 -2.49813724  1.28103148
H   6.51009717  1.04220653  1.42747087
H   6.09304600  0.02800707  2.83649937
H   7.13746009 -0.62601221  1.54389060
H   5.55285973  0.54127540 -0.74410539
H   6.21731596 -1.11200743 -0.61576745

