53
Total Energy                               R     -1.188304333686263E+03
C   0.02361758  2.41668250 -0.94928390
C   0.76404879  3.52176694 -1.70170950
C  -1.06802037  1.84168296 -1.86859253
N  -0.44179440  2.93629497  0.36818015
O  -1.67202475  3.61204359  0.30335224
C  -0.42020497  1.83773326  1.37490879
C  -0.08148474  2.40918019  2.75110516
C  -1.71433378  1.01625230  1.48663924
C   0.68129720  0.97238556  0.81976743
C   0.93766721  1.30641155 -0.50260164
C   1.89474938  0.62008449 -1.23442253
C   2.59304776 -0.41938211 -0.62740631
C   3.56801187 -1.16110957 -1.48465732
O   4.54724388 -0.65446586 -1.98674607
O   3.19683287 -2.42012170 -1.71721185
C   2.34391689 -0.75476041  0.71222905
C   3.16934116 -1.79014893  1.37992220
O   4.26423932 -2.14394884  0.99031595
O   2.60232551 -2.29393452  2.47769916
C   1.37880329 -0.05137800  1.43675746
H   0.08509503  4.35622246 -1.90103706
H   1.14165935  3.16146886 -2.66344388
H   1.60863693  3.89638303 -1.11768283
H  -1.78340025  2.61748559 -2.14999554
H  -1.61488913  1.02214504 -1.40279603
H  -0.60875684  1.45807606 -2.78440039
H  -0.85160551  3.12273310  3.05891266
H   0.88153274  2.92620302  2.73583762
H  -0.03760927  1.61892830  3.50687637
H  -1.56740752  0.19521052  2.19455136
H  -2.01187774  0.58348445  0.53248933
H  -2.53665534  1.63347817  1.85461933
H   2.08856406  0.86865802 -2.27298607
H   3.85028710 -2.85452708 -2.28498794
H   3.20535634 -2.92881532  2.88926476
H   1.19634583 -0.29724881  2.47647136
N  -4.36940726 -1.89143146 -0.35673312
C  -3.47809576 -1.09905382 -1.25090722
C  -5.79070578 -1.64752862 -0.73312046
C  -4.05752279 -3.34173203 -0.50185206
C  -4.15078690 -1.47638817  1.05849419
H  -6.00439548 -0.58600048 -0.61990728
H  -3.64466289 -1.41516441 -2.27932847
H  -3.72245193 -0.04445845 -1.13832098
H  -2.44399206 -1.28212857 -0.96421488
H  -3.11332665 -1.67002884  1.32293309
H  -4.37067444 -0.41439512  1.14980652
H  -4.81629538 -2.05448554  1.69743421
H  -4.22189473 -3.63326421 -1.53765511
H  -3.01692839 -3.50362520 -0.22599199
H  -4.71406094 -3.90740965  0.15715647
H  -5.93489001 -1.95142930 -1.76844414
H  -6.43230204 -2.23230998 -0.07618553

