31
Total Energy                               R     -6.721340453735950E+02
C  -0.19824061 -0.86357932 -0.03864659
C  -1.22817233 -1.79340558 -0.01112281
C  -2.54926836 -1.35340978  0.01317528
N   1.76074863  0.26000329 -0.49405851
O  -4.14958552  0.38761366  0.02867748
C  -0.48672995  0.49510543 -0.04075606
C  -1.79664741  0.95265794 -0.01728304
C  -2.82568088  0.01246049  0.00941592
C   0.79039162  1.29906118 -0.05018395
C   1.29463139 -1.08211598 -0.04611547
C   1.73221834 -2.13436873 -1.06558653
C   1.77721533 -1.52785494  1.34572763
O   3.09424457  0.54305844 -0.14983231
C   1.04884467  1.90419060  1.34113484
C   0.76166607  2.43653104 -1.07135554
H  -1.01779912 -2.85901878 -0.01089307
H   1.38201268 -3.13133448 -0.78008583
H   1.34021020 -1.90391619 -2.05985721
H  -3.37200179 -2.06058253  0.03071591
H   1.49215712 -0.82829951  2.13271320
H   1.33502253 -2.49888450  1.58910300
H  -2.02850373  2.01474709 -0.02265215
H   0.50017418  2.06469700 -2.06564838
H   0.03432214  3.20384480 -0.78848845
H  -4.22509957  1.34726896  0.01331910
H   0.26595608  2.63246865  1.57349653
H   1.04798465  1.15339093  2.13248375
H   2.82449681 -2.17030550 -1.12589458
H   2.86400073 -1.64130463  1.36600891
H   2.00943116  2.42463452  1.36303810
H   1.74375587  2.91556026 -1.13013260

