49
Total Energy                               R     -8.664129744859076E+02
C  -0.70793294 -0.99782176  0.83609355
C  -0.95597398 -1.51773858  2.25252147
C   0.01404804 -2.04425507 -0.01322642
N   0.09498978  0.24876072  0.89346659
O   1.23098198  0.28749336  1.44976822
C  -0.57510382  1.47257614  0.38752648
C  -0.74210943  2.47651139  1.52913996
C   0.24169602  2.07672284 -0.75520601
C  -1.88547837  0.88470269 -0.07064534
C  -1.96251195 -0.47938721  0.17873423
C  -3.08577316 -1.21565220 -0.16299394
C  -4.16849049 -0.57031283 -0.77369102
N  -5.33367527 -1.27392210 -1.07219208
C  -4.08634597  0.80879250 -1.02653429
C  -2.95310169  1.53260750 -0.67794080
H  -0.01037570 -1.78982195  2.72786422
H  -1.59057828 -2.40665912  2.21460977
H  -1.45347001 -0.76187400  2.86542104
H   0.98826609 -2.28236464  0.42154476
H   0.16206775 -1.68775996 -1.03532704
H  -0.57793355 -2.96225361 -0.04989314
H   0.23353758  2.80572496  1.89559882
H  -1.29947228  2.03513314  2.35924865
H  -1.28884046  3.35311362  1.17212970
H   1.23688275  2.36476564 -0.40602303
H  -0.25945550  2.97174891 -1.13299003
H   0.34868917  1.36790773 -1.57993739
H  -3.13534804 -2.28258577  0.03791306
H  -5.20541123 -2.26646808 -1.21083448
H  -5.89641491 -0.87023047 -1.80777789
H  -4.92496355  1.31032272 -1.50123371
H  -2.91132617  2.59824689 -0.88411442
N   4.13273098 -0.26082235 -0.57352364
C   4.01548404 -1.28736592  0.50267642
C   5.39600113 -0.47397526 -1.33398056
C   2.96788786 -0.37985280 -1.49649050
C   4.14056169  1.10156434  0.03506130
H   6.23633136 -0.38213895 -0.64776979
H   4.00799165 -2.27410875  0.04226428
H   4.87052149 -1.19097376  1.16984967
H   3.08802194 -1.11291118  1.04614851
H   3.21284793  1.23775721  0.58875692
H   4.99764569  1.17855754  0.70233195
H   4.21919824  1.83692037 -0.76420367
H   2.96410106 -1.37942201 -1.92789502
H   2.05868403 -0.21301346 -0.92593591
H   3.06467556  0.37028363 -2.27970947
H   5.37634198 -1.46989263 -1.77323944
H   5.46446952  0.28124056 -2.11546599

