37
Total Energy                               R     -1.076628233732966E+03
C  -0.59528090  0.82512668  1.40519432
C  -1.34430937  1.86314140  2.25443022
C   0.38606676  0.00830307  2.23886703
N   0.17190596  1.61255858  0.36725020
O   1.08196952  2.30097247  0.63679863
C  -0.37097214  1.47845237 -1.03793371
C  -1.01183789  2.83339032 -1.37655824
C   0.77535256  1.14624069 -1.98699862
C  -1.36859715  0.37594720 -0.82306980
C  -1.49642111  0.01901409  0.51105831
C  -2.36569281 -0.97658012  0.91952602
C  -3.13698072 -1.63978287 -0.04423645
N  -4.05768366 -2.60487081  0.33400351
C  -3.00420331 -1.27533014 -1.39573206
C  -2.12621337 -0.27596773 -1.78617830
H  -0.63926281  2.48715653  2.80704891
H  -1.96011640  1.31105774  2.96640636
H  -1.99393187  2.49022234  1.64200462
H   1.09231178  0.65755237  2.75865287
H   0.92513147 -0.70897879  1.62190276
H  -0.19696216 -0.53464190  2.98491961
H  -0.25639222  3.62066625 -1.41899918
H  -1.78752354  3.09957801 -0.65713804
H  -1.47010014  2.73036981 -2.36175355
H   1.52059579  1.94334755 -1.99786533
H   0.34821170  1.06036512 -2.98795046
H   1.24455014  0.20030647 -1.72188795
H  -2.45003222 -1.24855435  1.96744857
H  -3.87277426 -3.06021161  1.21626005
H  -4.31437013 -3.26498634 -0.38595955
H  -3.59872911 -1.79280880 -2.14250914
H  -2.03468317 -0.01416505 -2.83547254
B   3.21945006 -1.13960805 -0.11507064
F   3.05019395  0.20994938  0.25875070
F   4.03013388 -1.20908517 -1.26656126
F   3.83163627 -1.84547734  0.94057469
F   1.95981937 -1.71444897 -0.39422325

