49
Total Energy                               R     -8.665066027839093E+02
C   0.73197703 -1.08191576 -0.55716284
C   0.85906159 -2.11112521 -1.68207651
C   0.04946892 -1.75805464  0.64579707
N   0.03280100  0.12336099 -1.08022525
O  -1.35489931  0.01954749 -1.04406207
C   0.55876598  1.33567306 -0.39485207
C   0.53013404  2.51313396 -1.37152116
C  -0.20539020  1.74528727  0.87715470
C   1.96041458  0.88969576 -0.05645373
C   2.06147335 -0.49430303 -0.14805457
C   3.24747738 -1.15106997  0.14326733
C   4.36787694 -0.40742058  0.54039277
N   5.59224750 -1.04367528  0.77970729
C   4.26273664  0.98718423  0.63252277
C   3.06441127  1.63352258  0.33517469
H  -0.13722150 -2.40111881 -2.03051284
H   1.37550094 -3.01666744 -1.34612927
H   1.41021893 -1.69436580 -2.53020316
H  -0.95487781 -2.08469500  0.36866762
H  -0.03582406 -1.09014922  1.50503077
H   0.62701900 -2.63403255  0.95963491
H  -0.49964614  2.71225606 -1.68494398
H   1.12296083  2.29236489 -2.26406256
H   0.92475287  3.42655922 -0.91330515
H  -1.24549098  1.97385168  0.63587686
H   0.25378312  2.63802917  1.31542563
H  -0.19753702  0.96133688  1.63663937
H   3.32169205 -2.23358356  0.06717888
H   5.50745643 -2.00951421  1.06532468
H   6.20563141 -0.53989162  1.40551022
H   5.13121047  1.56536990  0.93717753
H   3.00784089  2.71621066  0.41461360
N  -4.27358003 -0.16104472  0.40424876
C  -5.62885185 -0.23447250  1.00939272
C  -3.22610130 -0.24452992  1.46441474
C  -4.07528149 -1.29019011 -0.55193764
C  -4.11044984  1.12789602 -0.33126154
H  -3.36516263  0.58490466  2.15712453
H  -5.72614712 -1.17897206  1.54289950
H  -5.75109735  0.59900646  1.69976780
H  -6.37228662 -0.17470924  0.21554513
H  -4.87106981  1.17911507 -1.11009209
H  -4.24503525  1.94754956  0.37415657
H  -3.10312734  1.13280261 -0.75673366
H  -4.19029422 -2.22790433 -0.00883465
H  -4.83120998 -1.21795424 -1.33347948
H  -3.06753477 -1.19453181 -0.96450638
H  -3.33824924 -1.19317497  1.98880230
H  -2.26367823 -0.18082572  0.95102791

