39
Total Energy                               R     -9.387903542154199E+02
C  -0.42631557  2.62313038 -0.22849774
C   0.94102628  2.94152176 -0.34878439
C   1.89918220  1.97148845 -0.24751767
N  -2.58503155 -0.30007002 -0.29944319
O  -3.60968003 -0.40378759 -0.86852052
C  -2.24130273  0.99830008  0.38207748
C  -2.29432758  0.72421670  1.90067150
C  -3.28664069  2.02497317 -0.00779345
C  -0.81391494  1.32414316 -0.03506350
C  -0.24809627 -1.07980458  0.04911571
C   0.15245645  0.28085288 -0.02734587
C   1.53606568  0.60910468 -0.08589335
C   2.48717517 -0.44439533  0.07083529
C   2.06062737 -1.73399559  0.27400701
C   3.95102593 -0.19801787 -0.03726404
O   4.47220507  0.57362703 -0.81507892
O   4.66043609 -0.95161036  0.80641063
C   0.69518647 -2.05803926  0.22856593
C  -1.74574150 -2.16390904 -1.63295181
C  -2.29045075 -2.43751738  0.81564405
C  -1.67468676 -1.50651677 -0.24788348
H   1.23161795  3.97740219 -0.48179652
H  -1.39092441 -1.48018170 -2.40627077
H   2.94357637  2.24833531 -0.28669800
H  -1.15112533  3.42687071 -0.24284195
H  -1.50888162  0.04890205  2.23624077
H  -2.14194738  1.68911102  2.38636540
H  -3.08570111  2.94699977  0.53578670
H  -3.27142206  0.33241421  2.18891060
H  -2.19647955 -2.03812237  1.82359903
H  -3.27342556  2.23224787 -1.07899860
H  -4.28078994  1.68436959  0.28162613
H  -2.76123141 -2.48589514 -1.86034296
H   5.60461533 -0.79906576  0.65829691
H   2.78153263 -2.53080552  0.40818173
H   0.41030685 -3.10158629  0.28837191
H  -1.10078439 -3.04172978 -1.61771642
H  -1.76375677 -3.39011894  0.76468352
H  -3.34126029 -2.61770244  0.58468533

