39
Total Energy                               R     -9.390964228183366E+02
C  -0.37741633  2.62474204  0.04133118
C   1.94614252  1.97887367  0.02398360
C   0.98961482  2.95506270  0.06320609
N  -2.49875019 -0.34582724 -0.58824087
O  -3.87076717 -0.68320836 -0.54907265
C  -2.28116033  0.97678166  0.04451424
C  -2.73699999  1.09738045  1.51753253
C  -3.08767516  1.98725439 -0.78631251
C  -0.79776238  1.31729953 -0.01630882
C  -0.22253451 -1.08925115 -0.03751706
C   0.17978825  0.27823876 -0.04294381
C   1.57155402  0.61269005 -0.03037234
C   2.53269959 -0.44601873 -0.00110763
C   2.10603211 -1.75099464  0.07479995
C   3.98930259 -0.19191389 -0.10734784
O   4.50825669  0.70698047 -0.74088189
O   4.72533048 -1.09591246  0.55416200
C   0.74160952 -2.06680290  0.05316510
C  -2.09220572 -2.01776007  1.31231661
C  -1.88222966 -2.62046145 -1.10032623
C  -1.69222540 -1.48117706 -0.08211433
H   1.28364213  3.99809204  0.12001320
H  -1.53814370 -2.31439473 -2.09228549
H   2.99208639  2.25080625  0.05440885
H  -1.09806805  3.43143905  0.08986106
H  -1.76164305 -1.36978435  2.12364168
H  -2.03918960  0.62401359  2.20896238
H  -2.99663043  3.00076409 -0.39337324
H  -2.80639685  2.15178272  1.79928512
H  -3.72257244  0.64538208  1.65220797
H  -2.75445438  1.98984297 -1.82816967
H  -4.14478747  1.72474497 -0.76460947
H  -2.93920490 -2.87890043 -1.16739834
H   5.66249059 -0.91959014  0.39224799
H   2.82900229 -2.55684441  0.11567151
H   0.46252129 -3.11206953  0.09784852
H  -1.64144936 -3.00043903  1.47488122
H  -1.34100220 -3.52243808 -0.81132251
H  -3.17671266 -2.12815387  1.37316345

