39
Total Energy                               R     -9.389817449501973E+02
C  -0.75348896 -2.07511040  0.04094074
C  -2.53089187 -0.44422611 -0.00722549
C  -2.11668300 -1.75203847  0.05145688
N   2.56449060 -0.38920925 -0.33041790
O   3.79018475 -0.68497049 -0.51558366
C   1.66728840 -1.53645155 -0.04247995
C   2.05071365 -2.13612699  1.32202588
C   1.90032600 -2.56902979 -1.15447115
C   0.21277672 -1.10067490 -0.02247907
C  -0.17389085  0.26956941 -0.02356460
C  -1.56500854  0.60915434 -0.01629485
C  -3.98788692 -0.17733621 -0.11872614
C  -1.93774579  1.97421230  0.05114200
C   0.38221101  2.61848820  0.07986820
C  -0.98259806  2.95067917  0.10531212
O  -4.72839740 -1.06176172  0.55960177
O  -4.49300230  0.71395316 -0.77154415
C   0.79734109  1.31075912  0.00677613
C   3.03655793  1.89779740 -0.97456364
C   2.83423830  1.27826375  1.45640051
C   2.28951019  1.02282046  0.04021593
H   1.62119291 -2.16137926 -2.12887768
H   2.65419107  1.73587891 -1.98512709
H   2.92194868  2.95211065 -0.72572645
H   1.30826576 -3.46503149 -0.97075678
H  -2.84434802 -2.55396929  0.07491751
H  -0.47825456 -3.12175080  0.07807691
H   1.48546359 -3.05466329  1.49096989
H   1.83302568 -1.44559326  2.13835279
H   2.27030229  0.72231723  2.20737849
H   2.94877612 -2.86389966 -1.18158584
H   3.11520153 -2.37894611  1.33549901
H   4.10165825  1.67011503 -0.95954053
H  -5.66533915 -0.88310541  0.39774113
H  -2.98383863  2.24551386  0.07998887
H  -1.27507742  3.99283586  0.17444386
H   1.10726024  3.42108419  0.13940623
H   2.75540096  2.34222644  1.68907552
H   3.88584048  0.98845522  1.51289666

