48
Total Energy                               R     -8.862763480709207E+02
C  -0.72127963 -1.01955769  0.82634677
C  -0.98779786 -1.55241907  2.23464013
C   0.00589371 -2.05958498 -0.02600262
N   0.08388370  0.22431014  0.90446702
O   1.21460946  0.25369628  1.47135827
C  -0.58132829  1.45602026  0.41158769
C  -0.76103826  2.44207476  1.56652537
C   0.24322077  2.07788032 -0.71562800
C  -1.88784807  0.87636071 -0.06783653
C  -1.96667553 -0.48991080  0.16160050
C  -3.08959735 -1.21966826 -0.20311295
C  -4.14860619 -0.54781934 -0.81057070
O  -5.28365914 -1.18775741 -1.19852047
C  -4.07865715  0.82727868 -1.04579544
C  -2.94676573  1.54084776 -0.67380357
H  -0.04834294 -1.83193882  2.71758636
H  -1.62437339 -2.43907188  2.18083907
H  -1.48975767 -0.80079318  2.84903920
H   0.97373721 -2.30583597  0.41817579
H   0.16732345 -1.69272239 -1.04230765
H  -0.58895594 -2.97490732 -0.07895753
H   0.21106132  2.76583388  1.94666082
H  -1.32572775  1.98761684  2.38447566
H  -1.30477882  3.32364023  1.21748658
H   1.23585602  2.35907498 -0.35434605
H  -0.25472395  2.97944073 -1.08171565
H   0.35525288  1.38273042 -1.55116962
H  -3.14698423 -2.28984516 -0.02062141
H  -5.22702379 -2.12691043 -0.98971165
H  -4.91777439  1.32464077 -1.52052608
H  -2.89877527  2.60959821 -0.85920705
N   4.12712961 -0.24156516 -0.57405986
C   4.12651609  1.11716429  0.04262397
C   5.39056177 -0.44188333 -1.33772521
C   4.01912739 -1.27504630  0.49628956
C   2.96173403 -0.36325525 -1.49598561
H   5.45325736  0.31891742 -2.11422756
H   4.98511755  1.19685847  0.70759322
H   4.19664723  1.85803241 -0.75232844
H   3.19979975  1.24285387  0.60044235
H   2.05220070 -0.20578004 -0.92329093
H   3.05219125  0.39192160 -2.27508345
H   2.96392963 -1.36039059 -1.93295727
H   4.87440485 -1.17617808  1.16277995
H   3.09131755 -1.11072498  1.04232961
H   4.01822194 -2.25913142  0.03016107
H   6.23126846 -0.34955307 -0.65206241
H   5.37617709 -1.43499289 -1.78352974

