36
Total Energy                               R     -1.096490478997371E+03
C   1.52799444 -0.31790174  1.34060396
C   2.46999080  0.30904732  2.37273465
C   0.74281171 -1.50079209  1.91062044
N   2.38736193 -0.84243294  0.21685132
O   3.18959705 -1.68548587  0.37309628
C   2.13228067 -0.19440810 -1.12196870
C   3.43137141  0.50009992 -1.54192777
C   1.72961345 -1.30210838 -2.09793159
C   1.02140816  0.74663675 -0.75110004
C   0.69043377  0.67976956  0.59169566
C  -0.31244445  1.46695240  1.13287531
C  -0.99374446  2.33578913  0.28395364
O  -1.98949949  3.14125596  0.72657511
C  -0.66701840  2.41006240 -1.07310952
C   0.34191489  1.61542020 -1.59452460
H   3.11696541 -0.44970105  2.81624929
H   1.84693163  0.74164720  3.15731334
H   3.07418148  1.10077132  1.92643404
H   1.41709163 -2.22518341  2.37061311
H   0.14333138 -1.98397934  1.13826330
H   0.07481004 -1.10693540  2.67804790
H   4.22613293 -0.22927081 -1.70852723
H   3.74760126  1.23228877 -0.79703560
H   3.22877649  1.01939695 -2.48030385
H   2.55693256 -1.99446438 -2.26384310
H   1.48032092 -0.82075344 -3.04523325
H   0.85369856 -1.84443042 -1.73969587
H  -0.56882751  1.40347324  2.18615518
H  -2.16047841  2.98469485  1.66232285
H  -1.21801479  3.09278068 -1.71041602
H   0.58939682  1.67302659 -2.64922552
B  -2.95909931 -1.18838879 -0.20863331
F  -1.73048981 -1.51586863 -0.81837394
F  -3.87348707 -2.24708637 -0.40639846
F  -2.76742238 -0.99239979  1.17488641
F  -3.47452740 -0.01041764 -0.78620413

