48
Total Energy                               R     -1.083386717447291E+03
C  -2.48785952 -1.44940089 -0.47501461
C  -1.65051139 -1.01877178 -1.69254763
C  -2.06300220 -2.85873288 -0.07314357
N  -2.41498977 -0.55360526  0.69858839
O  -1.09981055 -0.22922787  1.09308994
C  -3.28402083  0.63353864  0.45899910
C  -3.96396584  1.00463982  1.77942432
C  -2.55413685  1.87889939 -0.06297431
C  -4.30852321  0.12310840 -0.58382753
C  -3.98267981 -1.36084945 -0.78904625
H  -0.59897128 -0.89786205 -1.42149905
H  -1.99717750 -0.08102966 -2.13217901
H  -1.70640875 -1.78553575 -2.47186331
H  -0.99955020 -2.88868030  0.18531471
H  -2.22479689 -3.56340848 -0.89544893
H  -2.63439418 -3.20785331  0.79231381
H  -3.21647272  1.22840380  2.54829389
H  -4.58712550  0.18082456  2.14085161
H  -4.60158436  1.88814375  1.66419792
H  -1.84567239  2.26885998  0.67234236
H  -3.28722984  2.66588755 -0.26960385
H  -2.01000035  1.68507204 -0.98888012
H  -4.18819138  0.66985199 -1.52359379
H  -5.33951490  0.27990155 -0.25532319
H  -4.21562747 -1.71035343 -1.79871831
H  -4.54355465 -1.98380063 -0.08469755
N   1.89708192  2.31498843 -0.25847507
C   1.26285231  1.32692943 -1.17733756
C   1.56280402  1.97071812  1.15359261
C   3.37577771  2.28269727 -0.43989421
C   1.38389192  3.67832772 -0.56908665
H   0.48218116  2.00772962  1.27532732
H   1.59231312  0.32829766 -0.89978864
H   0.18360581  1.40429666 -1.07392903
H   1.56260456  1.55888174 -2.19818232
H   1.61920546  3.91407098 -1.60565883
H   0.30545680  3.68743646 -0.41735883
H   1.86301921  4.39366826  0.09726622
H   3.73054945  1.27688262 -0.22624447
H   3.60687214  2.55280033 -1.46917052
H   3.82771800  2.99691546  0.24638766
H   1.93172817  0.96873510  1.36423185
H   2.04268837  2.69648884  1.80853308
B   3.36305019 -1.71559766  0.24261138
F   1.96551746 -1.86585072  0.14204661
F   3.95667740 -2.97018200  0.49170242
F   3.86722707 -1.18812302 -0.96555022
F   3.66759591 -0.83352417  1.30109534

