35
Total Energy                               R     -8.606616584150281E+02
C   1.35765453  0.88271328  0.07957906
C   1.24601721 -0.56192328 -0.47692256
C   2.39661683  1.70099608 -0.67093508
N   0.00000013  1.54940978 -0.16029936
O   0.00000035  2.67297543 -0.50398651
C  -1.35765454  0.88271364  0.07957848
C   1.61579309  0.97218537  1.59407698
C  -2.39661629  1.70099640 -0.67093648
C  -1.61579376  0.97218656  1.59407626
C  -2.48643502 -1.35782073 -0.11017518
O  -2.64292051 -1.92897997  0.94443587
O  -3.38348181 -1.38078457 -1.09236778
C  -1.24601746 -0.56192322 -0.47692248
C  -0.00000013 -1.29961208 -0.00117583
C   2.48643477 -1.35782104 -0.11017584
O   2.64292105 -1.92897954  0.94443549
O   3.38348154 -1.38078421 -1.09236848
H   1.22120537 -0.48258904 -1.56621750
H  -1.22120583 -0.48258945 -1.56621746
H  -0.00000021 -2.30163138 -0.43469956
H   2.16837630  1.75883351 -1.73662973
H   3.36089967  1.20794780 -0.54793779
H   2.67413310  0.76014675  1.74928332
H   2.48281128  2.70658150 -0.26063580
H   1.41901062  1.98458207  1.94969616
H  -1.41901234  1.98458372  1.94969471
H  -2.16837520  1.75883339 -1.73663104
H  -2.48281076  2.70658198 -0.26063763
H  -3.36089928  1.20794836 -0.54793952
H  -2.67413364  0.76014711  1.74928238
H  -4.15849689 -1.89246462 -0.81730516
H  -1.03370203  0.26243902  2.17607164
H   1.03370182  0.26243679  2.17607161
H  -0.00000011 -1.41891521  1.08256014
H   4.15849698 -1.89246374 -0.81730594

