35
Total Energy                               R     -8.609700256290876E+02
C   1.23854586 -0.59025967 -0.46641825
C   1.57449371  1.01792538  1.50588639
C   2.47529836 -1.35536432 -0.06609864
N  -0.00000088  1.51981432 -0.45305288
O   2.65838411 -1.88154355  1.01302068
C  -1.23854544 -0.59025788 -0.46641563
C   0.00000010 -1.32026535  0.03867958
C  -2.47529871 -1.35536057 -0.06609769
C  -1.57448835  1.01792446  1.50589219
C  -2.40923521  1.60159087 -0.75914200
O  -3.38302735 -1.43405861 -1.04733899
O  -2.65839339 -1.88153345  1.01302194
C  -1.27829962  0.89600728 -0.00008607
C   1.27829993  0.89600743 -0.00008895
C   2.40923227  1.60159473 -0.75914593
O   3.38303298 -1.43405546 -1.04733025
O   0.00000045  2.89463974 -0.11650884
H   1.03065687  0.29734380  2.11602488
H   1.31427818  2.02057209  1.84940309
H   2.64036406  0.87069706  1.70002064
H   4.15540520 -1.92454308 -0.73172895
H   3.37182714  1.12617611 -0.55517103
H   2.23514505  1.57160333 -1.83865114
H  -0.00000072 -2.34894015 -0.33383839
H   1.21378410 -0.57507786 -1.55925511
H  -1.21378486 -0.57507518 -1.55925259
H   0.00000170 -1.37756079  1.12859790
H  -4.15540055 -1.92454471 -0.73173819
H  -1.03065402  0.29733796  2.11602823
H  -3.37182823  1.12617116 -0.55516175
H  -2.64035851  0.87069998  1.70002932
H  -2.48847128  2.64471463 -0.45270246
H  -2.23515281  1.57159558 -1.83864850
H  -1.31426574  2.02056847  1.84941051
H   2.48846879  2.64471786 -0.45270242

