63
Total Energy                               R     -1.429098116877613E+03
C  -1.13525473  0.25587830  1.59361660
C  -0.19077654 -0.93688370  1.80976217
C  -0.20017851 -1.49987322  3.22565588
C  -0.86142568  1.40046083  2.59489459
C   0.57332858  1.90813397  2.67948716
N  -0.98193685  0.73156902  0.19931400
O   0.14954960  1.01042715 -0.30453623
C  -2.24988768  0.98720407 -0.51823800
C  -2.76082310  2.41398745 -0.20369366
C  -1.78159860  3.53403709 -0.52528598
C  -2.03967520  0.77370697 -2.02172496
C  -3.27141874  1.05830433 -2.87670818
C  -3.19453804 -0.02109608  0.18741533
C  -3.30684725 -1.35821702 -0.50430270
O  -4.33107124 -1.77158020 -1.01100580
O  -2.18265728 -2.07022286 -0.50084777
C  -2.62956478 -0.13871710  1.62602389
H   0.82476469 -0.63203966  1.55195488
H  -0.46701101 -1.71928239  1.10286647
H   0.20089039 -0.79132511  3.95512322
H   0.41947097 -2.39976637  3.26879311
H  -1.20680431 -1.77993081  3.55083967
H  -1.17929124  1.03842418  3.57830599
H  -1.52681364  2.23485875  2.35604506
H   1.27833663  1.11518928  2.94216970
H   0.64469100  2.67947068  3.45179440
H   0.90532497  2.35133621  1.73893742
H  -3.04099157  2.46728791  0.85139961
H  -3.69031531  2.55513204 -0.76175938
H  -0.86346982  3.44969897  0.06256478
H  -2.23426621  4.50124339 -0.29102008
H  -1.50439663  3.54829958 -1.58279097
H  -1.69540295 -0.25030958 -2.18791866
H  -1.22070683  1.41715189 -2.34901978
H  -4.16361446  0.54446626 -2.50874176
H  -3.09578449  0.71961466 -3.90085551
H  -3.49589871  2.12664377 -2.92178456
H  -4.20652497  0.38007286  0.20550771
H  -2.32309578 -2.91486760 -0.95245389
H  -2.76693676 -1.14357880  2.02565902
H  -3.18521071  0.54064166  2.27318223
N   3.69000823  1.68007540 -0.58252019
C   3.38133578  0.77684744  0.56375094
C   2.93656766  2.95765557 -0.42808965
C   5.15174336  1.96456198 -0.61228169
C   3.28380258  1.01836896 -1.85543441
H   1.87130184  2.73540912 -0.42209902
H   3.67179070  1.27552951  1.48697321
H   2.31341214  0.57529597  0.56047353
H   3.94575998 -0.14532642  0.43918956
H   3.82746251  0.08017050 -1.94964694
H   2.21230462  0.83271316 -1.82547229
H   3.52893623  1.67938966 -2.68512352
H   5.43223495  2.44669377  0.32269793
H   5.68893575  1.02459240 -0.72721606
H   5.36374328  2.62318995 -1.45288197
H   3.23137027  3.42513469  0.50986060
H   3.18131734  3.60941796 -1.26536401
B   1.82870352 -3.04553017 -0.47782509
F   2.69119696 -3.81272586 -1.29259906
F   0.69077901 -3.81313300 -0.15139142
F   2.50674444 -2.68216635  0.70416267
F   1.43452032 -1.88860299 -1.17757070

