63
Total Energy                               R     -1.428917124860113E+03
C  -2.71628990 -0.30443151 -0.70316922
C  -2.43266677  0.39281044 -2.04965571
C  -3.70662972  0.77716929 -2.78960681
C  -3.56827569 -1.59380185 -0.88020114
C  -3.09190785 -2.59633720 -1.91698817
N  -1.40207138 -0.72341272 -0.12472065
O  -0.57827386 -1.28310905 -0.75364876
C  -1.22930986 -0.39859966  1.32761655
C  -1.83287257 -1.59417267  2.12547043
C  -1.19575566 -2.94701980  1.85891460
C   0.26086599 -0.20781436  1.61518329
C   0.58269582  0.02183094  3.08652781
C  -2.16251042  0.82612372  1.46275154
C  -1.40896343  2.12763398  1.28107702
O  -1.21205692  2.92521181  2.17176018
O  -0.96811140  2.28671525  0.04320033
C  -3.27312144  0.60962769  0.40315394
H  -1.82823134 -0.27216556 -2.66965164
H  -1.83646127  1.28210715 -1.84797968
H  -4.26849396 -0.09601814 -3.12817321
H  -3.44126556  1.36174236 -3.67345257
H  -4.36915798  1.39238805 -2.17518578
H  -4.56100034 -1.21731213 -1.14107713
H  -3.67846955 -2.08051022  0.09011320
H  -3.06237788 -2.17324299 -2.92297148
H  -3.78580575 -3.44040513 -1.93232232
H  -2.10230136 -2.99870357 -1.68477973
H  -2.90991316 -1.63647456  1.96404231
H  -1.69974300 -1.30428918  3.16991075
H  -1.31316825 -3.26635371  0.81942507
H  -1.68673919 -3.69666335  2.48351106
H  -0.13152812 -2.95748546  2.10341800
H   0.63586826  0.62098034  1.01212449
H   0.78721454 -1.09646618  1.27037343
H  -0.01926627  0.82061831  3.52589195
H   1.63242937  0.30916047  3.17773784
H   0.43576028 -0.88301806  3.67999240
H  -2.58377392  0.84075251  2.46530947
H  -0.34608028  3.03699139 -0.03148250
H  -3.61044487  1.55769187 -0.01173692
H  -4.12962025  0.13600283  0.88125708
N   3.33481845 -2.25146045 -0.42222960
C   2.22135735 -3.24133418 -0.35905957
C   4.46224464 -2.82685145 -1.20914530
C   2.86166278 -0.99858981 -1.07978252
C   3.80485611 -1.93834087  0.95789964
H   4.80126787 -3.73884880 -0.72049037
H   1.86967341 -3.43699779 -1.37049255
H   2.59747064 -4.15736281  0.09322626
H   1.41610181 -2.83152791  0.24612237
H   2.97728109 -1.51896299  1.52729154
H   4.15423772 -2.85755988  1.42490447
H   4.61782669 -1.21722406  0.89324316
H   2.51259054 -1.24007765 -2.08217114
H   2.05298004 -0.57879597 -0.49070524
H   3.69351054 -0.29888324 -1.12825334
H   4.10957620 -3.04785857 -2.21510681
H   5.27003123 -2.09781112 -1.24668888
B   2.23032446  2.80616942 -0.66190260
F   3.38461158  3.44329673 -1.13857759
F   2.50317767  2.15031010  0.54989531
F   1.21885177  3.79453080 -0.43136110
F   1.75274024  1.88940554 -1.61255893

