50
Total Energy                               R     -1.250866639321143E+03
C  -0.13422463  0.88891356  0.74355601
C   0.55188687  2.02409587 -0.03393920
C  -0.90230297  1.49300346  1.92274378
N  -1.04854355  0.04284196 -0.05707723
O  -1.76686541  0.72916584 -1.02999169
C  -0.30107436 -1.13813778 -0.56578129
C  -1.26661498 -2.32570912 -0.59877688
C   0.30803682 -0.95914487 -1.96632251
C   0.80819097 -1.24284359  0.46662815
C   1.70836101 -2.42000175  0.62132586
O   1.32699388 -3.57569008  0.44555682
N   2.97754685 -2.13373264  0.99109303
C   0.88815619 -0.12059623  1.18100070
H  -0.20555826  2.70103268 -0.43548803
H   1.14780658  1.64961911 -0.86754454
H   1.21477830  2.59111470  0.62741562
H  -1.71799625  2.12219307  1.55206803
H  -0.25323444  2.11481279  2.54908872
H  -1.33616158  0.70781306  2.54902498
H  -2.13491836 -2.04923877 -1.20574239
H  -1.61904402 -2.57385154  0.40651531
H  -0.80859136 -3.21788885 -1.03090768
H  -0.48561029 -0.79289672 -2.69785725
H   0.86524302 -1.85697674 -2.25517760
H   0.99230097 -0.11009274 -2.01131628
H   3.34205618 -1.19159463  0.97462054
H   3.63526724 -2.89205219  1.08901820
H   1.60209775  0.08022622  1.97431243
N  -4.94399292  0.42671492 -0.03047976
C  -4.12910302 -0.25342450  1.01895292
C  -4.50693613  1.85083414 -0.12813742
C  -4.69274514 -0.24366637 -1.34028230
C  -6.38685736  0.35434722  0.31572056
H  -4.67774006  2.33157848  0.83496407
H  -3.07630451 -0.19507605  0.72921014
H  -4.30053199  0.25215571  1.96938950
H  -4.45463054 -1.29134459  1.08919295
H  -6.68250316 -0.69205568  0.37938874
H  -6.54398409  0.84623911  1.27484833
H  -6.96143824  0.85781353 -0.46055414
H  -3.62084882 -0.13792264 -1.54207718
H  -4.98673877 -1.28970455 -1.25551305
H  -5.29350389  0.25144907 -2.10313348
H  -3.44318694  1.83175636 -0.39023523
H  -5.09985809  2.34199467 -0.89979692
B   4.58080941  1.09111279 -0.30749934
F   5.96915286  1.05626727 -0.54720705
F   4.12600684  2.42163419 -0.34632169
F   3.91299866  0.32546350 -1.28047104
F   4.32006904  0.54449473  0.97670859

