50
Total Energy                               R     -1.250772900991504E+03
C  -0.06855682 -0.92188756 -0.28860862
C   0.58013557 -2.11848348  0.40891593
C  -1.11334590 -1.38155665 -1.30648513
N  -0.68072458 -0.01892911  0.70770595
O  -1.58464780 -0.39911383  1.50626623
C  -0.12167507  1.35479283  0.73013088
C  -1.23023332  2.35502115  0.39796927
C   0.48452050  1.64376989  2.10397499
C   0.93502938  1.21957368 -0.34878680
C   1.82179329  2.35639105 -0.73453895
O   1.45886640  3.52393829 -0.61753415
N   3.02669332  2.01604432 -1.23354277
C   0.94876799  0.00258888 -0.88894239
H  -0.18442922 -2.72192105  0.90476283
H   1.30750739 -1.78999988  1.15421758
H   1.09129860 -2.74569206 -0.32520213
H  -1.89735447 -1.95490933 -0.80540349
H  -0.64586248 -2.02465106 -2.05660880
H  -1.56918854 -0.52943925 -1.81671590
H  -2.04201685  2.25114866  1.12228118
H  -1.62957733  2.18111853 -0.60452791
H  -0.84404398  3.37284883  0.44484918
H  -0.29270644  1.61148718  2.87147412
H   0.93381279  2.63952110  2.11287477
H   1.25529214  0.91043541  2.35389305
H   3.39003256  1.07374276 -1.18640169
H   3.66244998  2.75167492 -1.50201315
H   1.60105382 -0.33599567 -1.68561458
N  -5.17534297 -0.49934826 -0.19831219
C  -4.73796325 -1.39714156  0.90952178
C  -6.57812989 -0.05830504  0.04262836
C  -4.27903375  0.69122874 -0.25263817
C  -5.09982750 -1.23398143 -1.49292356
H  -7.22007222 -0.93679562  0.07998154
H  -4.82352268 -0.85439427  1.84932802
H  -5.38245086 -2.27478683  0.92042075
H  -3.70119577 -1.68153229  0.74114179
H  -4.07130803 -1.55092516 -1.65400530
H  -5.75790341 -2.09987494 -1.44199887
H  -5.41788917 -0.56677202 -2.29223025
H  -4.34639303  1.22180193  0.69501766
H  -3.26086295  0.34895428 -0.41587811
H  -4.60207708  1.33389068 -1.07021197
H  -6.61783088  0.47729320  0.98954669
H  -6.88399051  0.59598978 -0.77198007
B   4.62232512 -1.20545511  0.09753087
F   4.13445249 -2.52446214  0.11285951
F   3.97468435 -0.44100004  1.08531091
F   6.01044789 -1.20739546  0.33239097
F   4.36936932 -0.63047231 -1.17731366

