38
Total Energy                               R     -1.209841925257542E+03
C  -0.10136268 -0.78146887  1.03215436
C  -0.23346271 -1.10173834  2.52390092
C   0.50803233 -1.93960172  0.24181160
N   0.82550959  0.40638713  0.91721112
O   1.93489116  0.38405237  1.29362592
C   0.19179272  1.63827570  0.31481634
C   0.22044830  2.72664002  1.39284477
C   0.99037891  2.03069814 -0.92792597
C  -1.18489626  1.11426168  0.02106025
C  -1.34621353 -0.20641387  0.41619242
C  -2.54916666 -0.86114640  0.22539857
C  -3.59835548 -0.16570614 -0.37450514
C  -4.88420055 -0.88725417 -0.57681956
O  -5.08255852 -2.03206465 -0.24500586
O  -5.81714258 -0.13830283 -1.17215302
C  -3.43394617  1.16473657 -0.77190475
C  -2.22273420  1.81366805 -0.57520104
H   0.72118994 -1.44029772  2.93009903
H  -0.96179776 -1.90905167  2.61838057
H  -0.59190182 -0.23692081  3.08494782
H   1.46548412 -2.23883701  0.66982304
H   0.63623723 -1.67831703 -0.80856885
H  -0.18713872 -2.77809198  0.31564959
H   1.24857549  3.01026887  1.62399769
H  -0.28969737  2.39925118  2.30038802
H  -0.30205517  3.59521200  0.98879294
H   2.01568808  2.29002514 -0.66136510
H   0.50562918  2.90989747 -1.35618655
H   0.99016447  1.23075478 -1.66840838
H  -2.68070642 -1.89320855  0.53001125
H  -6.62389599 -0.66550637 -1.27543186
H  -4.25460935  1.69575958 -1.23763182
H  -2.09424003  2.84523461 -0.88356828
B   4.44322478 -0.55952191 -0.73619462
F   5.29204146 -0.99422527 -1.77735798
F   4.53433937 -1.45679993  0.34783154
F   4.83667109  0.72847756 -0.31764971
F   3.11350128 -0.51772521 -1.20539127

