50
Total Energy                               R     -9.996296739273646E+02
C   0.37023176 -0.75277067  1.25397663
C  -0.25831711 -1.97264980  0.57954036
C   0.71131716 -1.04661272  2.71457587
N  -0.55407954  0.40438747  1.17472268
O  -1.69506333  0.39272209  1.71935671
C  -0.05542746  1.57835564  0.41863452
C  -0.95455589  1.84149903 -0.78998771
C   0.00774182  2.79913718  1.33643426
C   1.31015462  1.08262244  0.02085963
C   1.54514638 -0.20801676  0.48208523
C   2.74582188 -0.84299759  0.21876954
C   3.72040642 -0.16672532 -0.51747761
C   5.00258000 -0.86661134 -0.78691341
O   5.26606525 -1.98579964 -0.41121966
O   5.86483859 -0.13258262 -1.50034079
C   3.48248139  1.13180255 -0.98003498
C   2.27401952  1.76154295 -0.71194112
H  -1.16829016 -2.26948218  1.10646889
H   0.44243368 -2.81100119  0.60658896
H  -0.50592884 -1.76167123 -0.46386732
H  -0.18899630 -1.33657553  3.26152004
H   1.15099653 -0.17074675  3.19814634
H   1.42735310 -1.87058923  2.76905336
H  -1.96432071  2.09340609 -0.45938661
H  -1.00378027  0.96548454 -1.44101613
H  -0.56228996  2.68257511 -1.36713466
H  -0.99465251  3.06037403  1.68379960
H   0.41651607  3.65334784  0.79106826
H   0.64203267  2.60405139  2.20467091
H   2.93746368 -1.84967141  0.57435423
H   6.67372168 -0.64877858 -1.63564554
H   4.24323342  1.65121373 -1.54972885
H   2.09240571  2.76923460 -1.07113771
N  -4.76057630 -0.50798375 -0.80005886
C  -4.73820917  0.97934165 -0.90177589
C  -5.53394900 -1.07475506 -1.94064866
C  -3.36199824 -1.02660730 -0.83530090
C  -5.40200073 -0.90687129  0.48536120
H  -6.55310573 -0.69444132 -1.89609889
H  -4.24139472  1.25762681 -1.82973469
H  -5.76405076  1.34403200 -0.89813804
H  -4.19339993  1.37747462 -0.04782114
H  -4.81799879 -0.49860125  1.30832795
H  -6.41524422 -0.50936331  0.50812174
H  -5.42281872 -1.99384390  0.54228491
H  -2.90799950 -0.74067391 -1.78256214
H  -2.81490032 -0.59069680 -0.00132450
H  -3.39199779 -2.11117444 -0.74439691
H  -5.05843956 -0.76885469 -2.87091600
H  -5.53334103 -2.16030135 -1.85745451

