38
Total Energy                               R     -9.550083244923144E+02
C  -0.44913664 -1.41146694  0.02524216
C  -1.46390481 -2.16871311 -0.85112466
C  -0.58157449 -1.88357733  1.49091195
N   0.87576606 -1.70156717 -0.59643002
O   1.12295078 -3.09229755 -0.55561866
C   2.05737830 -0.98181036 -0.06708280
C   2.55111384 -1.42509881  1.32886730
C   3.19082450 -1.24157370 -1.07713456
C   1.76152819  0.50752743 -0.02035058
C   0.42446236  0.99760868 -0.04566648
C  -0.69412363  0.09912182 -0.03368515
C  -1.93437969  0.69479076 -0.05035106
N  -3.19752477 -0.06246033  0.03003785
O  -3.49204505 -0.58597908  1.08737727
O  -3.91673138 -0.06333793 -0.95165177
C  -2.16601449  2.08524470 -0.11361395
C  -1.10161128  2.92943159 -0.09793883
C   0.21420029  2.40960045 -0.04385568
C   1.31502707  3.29386262  0.02333679
C   2.58620864  2.79741766  0.10217584
C   2.79980115  1.40754964  0.07713762
H  -1.09863242 -3.18328214 -0.99320572
H  -1.56612500 -1.70025140 -1.83362350
H  -2.44714483 -2.25458864 -0.39221650
H  -0.08036919 -2.84636969  1.60692341
H  -1.62931591 -2.01069415  1.76569560
H  -0.14339819 -1.17417126  2.19396387
H   2.63117724 -2.51274964  1.37687627
H   1.89715069 -1.08738800  2.13236812
H   3.54303247 -1.00539076  1.51671023
H   3.37258319 -2.31307051 -1.16101697
H   4.12657111 -0.77237623 -0.76968383
H   2.92242876 -0.85903597 -2.06585391
H  -3.18315704  2.45812007 -0.14639645
H  -1.24964598  4.00368504 -0.11697354
H   1.12793768  4.36287113  0.02301779
H   3.43655129  3.46745980  0.17260069
H   3.82047638  1.04885076  0.13349730

