38
Total Energy                               R     -9.548913749273868E+02
C  -0.49636026 -1.40780451  0.14111577
C  -1.48532033 -2.24213619 -0.68158888
C  -0.58272086 -1.78551501  1.63144140
N   0.86819674 -1.77467622 -0.35384096
O   1.07161535 -3.01129130 -0.57632362
C   2.09697894 -0.97719587 -0.11384937
C   2.80206929 -1.50172149  1.14805087
C   3.00019676 -1.18847543 -1.33908215
C   1.76184976  0.49465015  0.01990250
C   0.42613905  0.98249097 -0.01832703
C  -0.70306808  0.09863046 -0.01762068
C  -1.93766959  0.69956062 -0.08476013
N  -3.21008320 -0.04641874 -0.02801280
O  -3.56337961 -0.49897790  1.04343440
O  -3.86911182 -0.10781397 -1.04722536
C  -2.15423118  2.08978076 -0.17091854
C  -1.08315774  2.92427713 -0.12363088
C   0.22581084  2.39569725 -0.02781656
C   1.32941844  3.27378805  0.06393182
C   2.59702942  2.77429620  0.16973306
C   2.80496650  1.38478931  0.13765486
H  -1.14646091 -3.27452180 -0.70981057
H  -1.56595519 -1.87242801 -1.70563984
H  -2.46997716 -2.26059604 -0.22210895
H  -0.28400322 -2.82816064  1.76133891
H  -1.60743799 -1.66865518  1.98448164
H   0.06132226 -1.15168212  2.24251549
H   2.96989249 -2.57677157  1.06218176
H   2.22178413 -1.30275816  2.04963875
H   3.77229580 -1.01346916  1.25408594
H   3.23340478 -2.24616256 -1.46157946
H   3.93891878 -0.65000800 -1.20903790
H   2.51439929 -0.82404339 -2.24731287
H  -3.16637709  2.47054342 -0.24105356
H  -1.22129385  3.99934742 -0.15287031
H   1.14634709  4.34314449  0.05663112
H   3.44838629  3.44019075  0.25720435
H   3.82338265  1.01768632  0.18981195

