62
Total Energy                               R     -1.798096824647302E+03
C  -1.78027461 -1.69236254  1.48440197
C  -2.26790714 -0.49918708  2.31828762
C  -2.20154463 -3.01623173  2.15757950
N  -2.54232673 -1.65275424  0.18076888
O  -3.69370625 -1.42643679  0.22460677
C  -1.90990841 -1.99399233 -1.14132768
C  -1.72188438 -3.53171331 -1.12360592
C  -2.87537209 -1.60356925 -2.24594745
C  -0.54546849 -1.32984660 -1.19557856
C   0.27456710 -1.30893579 -0.03177854
C  -0.28406955 -1.59841453  1.24283611
C   0.52763914 -1.69056878  2.34413601
C   1.89122094 -1.39915276  2.24886861
C   2.42114803 -1.01037750  1.05149840
N   3.77904039 -0.46555740  1.13190774
O   4.60320086 -1.07219136  1.78448717
O   3.99214460  0.60186097  0.58235070
C   1.66327522 -0.99333601 -0.14770851
C   2.13403120 -0.68952875 -1.45323975
N   3.56154443 -0.58826993 -1.75946065
O   4.29825319 -1.44206703 -1.29460182
O   3.92963893  0.30565176 -2.49364014
C   1.30340471 -0.58176619 -2.52907477
C  -0.05356293 -0.90803785 -2.39934347
H  -3.34001286 -0.57068410  2.49743037
H  -2.03853474  0.44428025  1.82761182
H  -1.75718579 -0.53336392  3.27976699
H  -3.28953624 -3.07167503  2.20823733
H  -1.81398256 -3.00828303  3.17558787
H  -1.80935590 -3.88864385  1.63851889
H  -2.67585216 -4.02603302 -0.93411774
H  -0.98030989 -3.86080037 -0.39797378
H  -1.37016021 -3.80269300 -2.11973485
H  -3.83338238 -2.10127524 -2.10192172
H  -2.47267145 -1.94879539 -3.19647438
H  -3.02747310 -0.52550138 -2.28671873
H   0.12373434 -1.92102050  3.32136136
H   2.50713053 -1.40361976  3.13899936
H   1.70507218 -0.32449820 -3.50096147
H  -0.66963852 -0.88792473 -3.28701332
N   0.92909065  3.17483151  0.46831550
C   0.38115336  2.04942719  1.27929625
C   1.53293803  2.63527023 -0.78364725
C  -0.16757606  4.12034611  0.11635133
C   1.97148924  3.89135906  1.25529537
H   2.34967024  1.97037905 -0.51455493
H  -0.32914962  1.49904031  0.66756943
H   1.20616874  1.40886036  1.58467121
H  -0.11402994  2.46086527  2.15718756
H   1.51818788  4.27323476  2.16851274
H   2.77033807  3.19160393  1.49523414
H   2.35950211  4.71320667  0.65576633
H  -0.90690200  3.59196354 -0.48022545
H  -0.61798515  4.49394500  1.03400414
H   0.25556743  4.94370835 -0.45661715
H   0.76446680  2.09621094 -1.33535550
H   1.90744936  3.46817087 -1.37662377
B  -3.25719329  1.98405487 -0.34302685
F  -3.10566562  2.57763407  0.92445681
F  -2.17186378  1.10341025 -0.57973204
F  -4.46205160  1.25927997 -0.38603229
F  -3.26293483  2.98084109 -1.33726692

