62
Total Energy                               R     -1.798404016983123E+03
C  -1.09053532 -2.01194127  1.28865822
C  -1.99139606 -1.26697858  2.29188599
C  -0.90925307 -3.46535158  1.78797610
N  -1.74751304 -1.85795046 -0.02623609
O  -2.97066694 -2.55487705 -0.03274496
C  -0.95626164 -2.19645664 -1.22855629
C  -0.59959805 -3.69281560 -1.39669178
C  -1.79888900 -1.75966538 -2.43850109
C   0.34876706 -1.41761368 -1.19689077
C   0.94430370 -1.04808247  0.04591160
C   0.27926954 -1.35303652  1.26897895
C   0.90277588 -1.07244029  2.46396088
C   2.10881119 -0.37414180  2.50248584
C   2.72120759 -0.00465954  1.33526478
N   3.83109302  0.92813338  1.48371654
O   4.59237737  0.77995349  2.42299979
O   3.91961255  1.84903427  0.68654064
C   2.22077835 -0.39806846  0.06665963
C   2.87307910 -0.22618846 -1.18218566
N   4.28470542  0.12569382 -1.28045781
O   5.05720280 -0.37961381 -0.47958489
O   4.63977368  0.85915179 -2.18427689
C   2.27049529 -0.54309343 -2.36824263
C   1.00144104 -1.12487996 -2.37104502
H  -2.98557579 -1.71311005  2.28647775
H  -2.08083114 -0.21334641  2.01623209
H  -1.61065086 -1.32785684  3.31205231
H  -1.83493367 -4.02444091  1.64344951
H  -0.67645689 -3.46458880  2.85586888
H  -0.10157646 -3.98894347  1.27717396
H  -1.48107126 -4.31048566 -1.21033761
H   0.19726552 -4.00861068 -0.72271966
H  -0.25832463 -3.88293365 -2.41763260
H  -2.78149911 -2.22407234 -2.37588118
H  -1.34777277 -2.07103056 -3.38154146
H  -1.92742246 -0.67511739 -2.45866046
H   0.44110501 -1.33605714  3.40596455
H   2.52948089 -0.06856466  3.45220844
H   2.80415869 -0.40074729 -3.29980216
H   0.57280355 -1.39232436 -3.32676977
N  -4.64761866  1.39245073  0.01832723
C  -5.27402589  0.49413942  1.02802649
C  -3.91282984  0.57018107 -0.98624170
C  -5.70477344  2.18889484 -0.66391578
C  -3.69084693  2.31347774  0.69423983
H  -3.14223954 -0.01066768 -0.47856894
H  -5.96420442 -0.17625131  0.51883699
H  -4.49027026 -0.07876565  1.51908117
H  -5.80871559  1.10303773  1.75549374
H  -4.23204056  2.89562786  1.43847810
H  -2.91348183  1.72070686  1.17143628
H  -3.25430027  2.97184461 -0.05320175
H  -6.39790419  1.50552511 -1.15143833
H  -6.22857834  2.78854033  0.07870554
H  -5.23295671  2.83443767 -1.40268203
H  -4.62374659 -0.09474866 -1.47455326
H  -3.46531530  1.24139833 -1.71655009
B  -0.14857474  2.63421337 -0.28225214
F  -0.15545283  2.05346519  1.00205715
F  -0.80067797  3.88749897 -0.22803378
F   1.18087451  2.82014731 -0.71245715
F  -0.82121608  1.79614631 -1.19172661

