51
Total Energy                               R     -1.138917346951484E+03
C   1.85695122 -0.17810382  1.40205129
C   0.41085219  0.14729570  1.79002127
C   2.59498378 -0.87858132  2.53875445
N   1.77526229 -1.13857962  0.24500760
O   1.25207962 -2.18588277  0.31732587
C   2.45018545 -0.65564993 -1.00772340
C   3.82888602 -1.34539471 -0.96923170
C   1.65749356 -1.06862108 -2.23297021
C   2.61404535  0.84542072 -0.73263448
N   1.55307143  1.67692310 -1.37627861
C   2.62562892  1.00114713  0.79280986
H  -0.08340527 -0.73687931  2.19309099
H  -0.15854196  0.52750217  0.94427980
H   0.44924551  0.91791045  2.56079182
H   2.04195332 -1.75515248  2.87866494
H   2.66936655 -0.16706759  3.36299308
H   3.60178791 -1.16957961  2.23463974
H   3.69903433 -2.42716824 -1.00593524
H   4.40110198 -1.07676858 -0.07975480
H   4.37295298 -1.01448411 -1.85455930
H   1.60485066 -2.15491281 -2.30132932
H   2.18430245 -0.69536780 -3.11309780
H   0.64424918 -0.66560973 -2.23116338
H   3.54856620  1.19025285 -1.16683762
H   0.59344697  1.44346899 -1.08512432
H   1.59748655  1.60994048 -2.39367566
H   1.69794818  2.65777216 -1.13165284
H   2.19034329  1.94978877  1.10392046
H   3.66119614  0.98258006  1.13011360
N  -2.74562261 -2.04415791 -0.10581595
C  -2.05227754 -2.99691595  0.80692985
C  -3.87873296 -2.73902521 -0.77984067
C  -3.26361800 -0.88895010  0.68200213
C  -1.78394504 -1.54990567 -1.13110971
H  -3.48254559 -3.56876508 -1.36262265
H  -2.76392411 -3.34364163  1.55424714
H  -1.68334996 -3.83652371  0.22032827
H  -1.22432702 -2.48145397  1.28866148
H  -1.00026525 -0.99281321 -0.62622632
H  -1.36541277 -2.40469242 -1.65948655
H  -2.31362000 -0.89910255 -1.82409411
H  -3.97810295 -1.26073249  1.41457759
H  -2.42692738 -0.40761903  1.18319098
H  -3.74888213 -0.19159641  0.00181881
H  -4.56470192 -3.10718696 -0.01904467
H  -4.38569718 -2.02976332 -1.43176947
B  -1.52748133  2.81709898  0.01910403
F  -0.30494069  3.39200242  0.41976909
F  -1.23537074  1.69855497 -0.82212866
F  -2.24152363  2.37324476  1.14038220
F  -2.28472655  3.74660215 -0.70622432

