51
Total Energy                               R     -1.139110592885775E+03
C  -1.63893595 -0.94058350  1.33829270
C  -0.29186178 -0.58448137  1.96417496
C  -2.72806383 -0.97157756  2.40801880
N  -1.98812189  0.06551633  0.30279191
O  -2.28637499  1.25914262  0.60763617
C  -2.32350525 -0.49679290 -1.02502465
C  -3.83599170 -0.73500040 -1.10700260
C  -1.88133461  0.44349259 -2.13790368
C  -1.59527605 -1.84665476 -0.96475676
N  -0.19920317 -1.75968991 -1.49426501
C  -1.59764273 -2.24191786  0.51489769
H  -0.32470872  0.41373035  2.40788317
H   0.51887778 -0.61347469  1.23540638
H  -0.06046444 -1.30354892  2.75356275
H  -2.75758409 -0.02981484  2.96066438
H  -2.51609030 -1.77708207  3.11540104
H  -3.71013332 -1.15141860  1.96431547
H  -4.36388434  0.20716779 -0.94565732
H  -4.17701222 -1.45604247 -0.36128736
H  -4.09392619 -1.11251685 -2.09891612
H  -2.48609069  1.35126689 -2.11921523
H  -2.03207419 -0.04132198 -3.10564887
H  -0.83376040  0.73886670 -2.05366713
H  -2.09192186 -2.58774177 -1.58681414
H   0.36760625 -1.03480752 -1.04638057
H  -0.19144923 -1.57465475 -2.49728922
H   0.29496013 -2.63869465 -1.33509637
H  -0.73599656 -2.85865559  0.77207197
H  -2.49215491 -2.83586244  0.70448720
N   0.92139328  3.21427660 -0.00021665
C   0.44256164  3.29808366  1.40913998
C  -0.17011515  3.64264111 -0.92043634
C   2.10399123  4.10243449 -0.17999666
C   1.30771216  1.80803248 -0.30992294
H  -1.03297986  2.99916043 -0.76012768
H   0.17499196  4.33148196  1.62434141
H  -0.42723412  2.65331108  1.51938917
H   1.24364570  2.97119201  2.06999770
H   2.09338801  1.50393638  0.37766781
H   0.43275139  1.17564995 -0.18638018
H   1.66465602  1.76371053 -1.33645897
H   1.81297647  5.12491674  0.05445871
H   2.89375668  3.77235394  0.49281745
H   2.43828638  4.03384271 -1.21372657
H  -0.42644331  4.67757732 -0.69980609
H   0.18300355  3.55358726 -1.94644904
B   2.96127739 -1.80215187 -0.02310030
F   2.00136830 -2.82339540  0.16692986
F   2.44791214 -0.87581386 -0.96721366
F   3.20193652 -1.14550814  1.19434128
F   4.15232925 -2.35809078 -0.51630041

