34
Total Energy                               R     -1.057433456594770E+03
C   0.70817265  1.49740715  0.24447331
C   1.01958226  2.37239045 -0.97401450
C  -0.50760834  2.02711763  1.00472058
N   0.35884509  0.13386559 -0.28989082
O  -0.49475089 -0.04388539 -1.07573437
C   1.19149517 -0.98337285  0.27137900
C   0.36074601 -1.53177569  1.44791789
C   1.40758737 -2.04407349 -0.79277712
C   2.42735076 -0.21879120  0.80001133
C   3.57975216 -0.22479395 -0.18839522
O   3.77873603  0.60026317 -1.04456052
O   4.37254400 -1.27958525  0.00321131
C   1.91712426  1.19538980  1.13829876
H   0.13612595  2.48509633 -1.60456645
H   1.84615838  1.96716338 -1.55748019
H   1.30768527  3.35502820 -0.59708890
H  -1.36364570  2.15400277  0.34164636
H  -0.22920830  3.00216368  1.40965810
H  -0.77700286  1.37008656  1.83194274
H  -0.58841020 -1.92879731  1.08933120
H   0.17454788 -0.77436892  2.20980075
H   0.94588148 -2.33973465  1.89003001
H   0.45997410 -2.50497672 -1.07343130
H   2.05091506 -2.81869116 -0.37427182
H   1.88160663 -1.63583761 -1.68821570
H   2.76936120 -0.72516417  1.70133938
H   5.08201197 -1.27170790 -0.65864713
H   2.69229930  1.94626520  0.99610009
H   1.61421127  1.21891426  2.18474875
B  -3.76408686 -0.27230794 -0.11990984
F  -3.67680280 -1.16612304 -1.20691195
F  -3.71598815  1.05468167 -0.59421256
F  -4.98155624 -0.48124521  0.56393379
F  -2.68914611 -0.49912330  0.76551000

