46
Total Energy                               R     -8.473165005499918E+02
C   0.71865853  1.69494261  0.20244563
C   0.85952028  2.74020913 -0.90960227
C  -0.17402781  2.27731690  1.30261241
N   0.12224258  0.40919011 -0.24202244
O  -0.80442669  0.53135073 -1.27183775
C   1.20004981 -0.56195039 -0.52129733
C   0.61550126 -1.96943530 -0.46113750
C   1.90246967 -0.36727948 -1.87402048
C   2.13316847 -0.24692646  0.67741155
C   3.51442747 -0.82150631  0.53976611
O   4.50561125 -0.23427676  0.17218192
O   3.55542331 -2.12270839  0.87406518
C   2.10167696  1.28092212  0.75459977
H  -0.12077230  3.03893662 -1.28649069
H   1.44003182  2.36444717 -1.75464202
H   1.36710001  3.63011441 -0.51977168
H  -1.19199731  2.42604582  0.92769496
H   0.20198056  3.24518983  1.65414756
H  -0.22529355  1.59955125  2.16089202
H  -0.11559162 -2.09772410 -1.26412143
H   0.10578255 -2.13750555  0.49260675
H   1.38975886 -2.73265559 -0.57779305
H   1.13567688 -0.23943373 -2.64180405
H   2.51425784 -1.23767606 -2.13415930
H   2.55258615  0.51002109 -1.89228880
H   1.68014085 -0.69140170  1.56775984
H   4.45955441 -2.44618464  0.74315969
H   2.89996417  1.69508591  0.13461201
H   2.27014297  1.63559459  1.77517076
N  -3.65131900 -0.49129922  0.18589004
C  -3.23896649 -1.35309426 -0.96098277
C  -4.97100440 -0.92808765  0.70956032
C  -2.61725149 -0.59164722  1.25687944
C  -3.72301219  0.92464014 -0.28098268
H  -5.71134667 -0.84367313 -0.08473070
H  -3.15429602 -2.38089069 -0.60854180
H  -4.00372089 -1.28654469 -1.73483304
H  -2.27686996 -0.96289712 -1.31212535
H  -2.72831378  1.17655777 -0.66525337
H  -4.48003566  0.99235062 -1.06236702
H  -4.00258768  1.55408171  0.56360982
H  -2.57330844 -1.62643219  1.59652906
H  -1.65649197 -0.27703051  0.83954959
H  -2.91267326  0.05550075  2.08287539
H  -4.89369109 -1.96345222  1.03912624
H  -5.24657526 -0.28875951  1.54732762

