46
Total Energy                               R     -8.472219025327749E+02
C  -0.80949644  1.74878339 -0.19099685
C  -0.79415883  2.98825195  0.69426823
C   0.10764845  1.93349199 -1.40192914
N  -0.35683645  0.56722078  0.58135277
O   0.67183761  0.59405434  1.31877362
C  -1.27597032 -0.59439538  0.57187231
C  -0.49568056 -1.88013076  0.33738534
C  -2.01632601 -0.64333481  1.91143359
C  -2.18904723 -0.20272624 -0.62057715
C  -3.55353212 -0.83963694 -0.56453201
O  -4.58265523 -0.28274813 -0.27168328
O  -3.50745429 -2.13926101 -0.88521807
C  -2.22698934  1.32497577 -0.59318431
H   0.22600154  3.25096421  0.98349131
H  -1.38430859  2.82842417  1.60051445
H  -1.22370979  3.83204711  0.14751659
H   1.14229736  2.08172053 -1.08148733
H  -0.20409208  2.81396728 -1.97004020
H   0.07212959  1.06508418 -2.06589859
H   0.22143167 -2.04390628  1.14456354
H   0.04550822 -1.84562502 -0.61108612
H  -1.18082795 -2.72981232  0.31123601
H  -1.29225574 -0.73686034  2.72407516
H  -2.68193400 -1.50992943  1.95342984
H  -2.60761166  0.25981283  2.08083666
H  -1.70510927 -0.55145421 -1.53719955
H  -4.39980441 -2.51299784 -0.81733908
H  -2.94769264  1.66657998  0.15278074
H  -2.51683487  1.74362487 -1.55800544
N   3.76466889 -0.46471616 -0.17870914
C   3.36922840 -1.31002562  0.98527755
C   5.10123459 -0.89490974 -0.67665630
C   2.75626797 -0.61740070 -1.26577175
C   3.82284077  0.96515903  0.24288917
H   5.82835828 -0.77430199  0.12448476
H   3.31643252 -2.34749203  0.65908005
H   4.12106049 -1.19932198  1.76514788
H   2.39767570 -0.97248193  1.34255047
H   2.83798813  1.25975981  0.60278829
H   4.56176641  1.06325144  1.03694275
H   4.11178810  1.56905182 -0.61593065
H   2.72890296 -1.66163884 -1.57246011
H   1.78678958 -0.31169835 -0.88213517
H   3.04654788  0.01484245 -2.10338753
H   5.04209869 -1.94008659 -0.97592266
H   5.37263594 -0.27402907 -1.52890166

