30
Total Energy                               R     -3.170188797028947E+03
C  -1.54240830  1.36660292  0.00074267
C  -1.67463228  2.17781214  1.29361813
C  -1.64608122  2.24131847 -1.24995522
N  -2.69120583  0.38883248 -0.03035724
O  -3.81334268  0.73021786 -0.07245049
C  -2.28079827 -1.06248293  0.00273790
C  -2.83340111 -1.65223194  1.30547571
C  -2.86353777 -1.74067706 -1.23784122
C  -0.78508017 -0.91560637 -0.00878142
C  -0.38229669  0.41074747 -0.00444232
C   0.96000549  0.75676195 -0.00176420
C   1.88598371 -0.27792035 -0.00489704
Br   3.74189672  0.14841759 -0.00032576
C   1.50034893 -1.61590702 -0.01114927
C   0.14891613 -1.93969239 -0.01286812
H  -2.58191604  2.78387447  1.27644957
H  -0.81005210  2.84146095  1.34719306
H  -1.67549851  1.52818182  2.17042731
H  -2.55427532  2.84550156 -1.22365145
H  -1.62636367  1.63644812 -2.15802979
H  -0.78276238  2.90863455 -1.25257533
H  -3.92471512 -1.64635682  1.29731341
H  -2.46311840 -1.10693555  2.17512703
H  -2.48704534 -2.68542718  1.36301318
H  -3.95417353 -1.74080331 -1.20150226
H  -2.51332117 -2.77416293 -1.23598660
H  -2.52046886 -1.25367457 -2.15216289
H   1.26803021  1.79595277  0.00277412
H   2.24344413 -2.40445301 -0.01404424
H  -0.16107739 -2.97877596 -0.01609252

