30
Total Energy                               R     -3.170379290451891E+03
C  -1.56416722  1.36132046 -0.00063417
C  -1.62935042  2.21188089  1.26824777
C  -1.61500252  2.23529544 -1.25365989
N  -2.68450288  0.38980361 -0.01579482
O  -3.89332157  0.75916770 -0.01608792
C  -2.29714460 -1.04162176 -0.00074686
C  -2.82623940 -1.71113159  1.26812209
C  -2.82784390 -1.73824686 -1.25367750
C  -0.79550006 -0.91355896 -0.00142877
C  -0.39060748  0.41491065 -0.00125790
C   0.95499164  0.75431456 -0.00070624
C   1.88154688 -0.28066296 -0.00040516
Br   3.74251348  0.14569380 -0.00009540
C   1.49671377 -1.61803347 -0.00053112
C   0.14209433 -1.93603931 -0.00099755
H  -2.54918183  2.80150763  1.27901623
H  -0.78003657  2.89914583  1.29972441
H  -1.60264600  1.58444579  2.16269943
H  -2.53411350  2.82604493 -1.26347099
H  -1.57906901  1.62465689 -2.15934415
H  -0.76511192  2.92247463 -1.26317296
H  -3.91862992 -1.68819737  1.27963818
H  -2.45399725 -1.20522823  2.16253606
H  -2.50399510 -2.75507623  1.29939694
H  -3.92020559 -1.71428503 -1.26500446
H  -2.50715622 -2.78308823 -1.26182660
H  -2.45554445 -1.25286233 -2.15935675
H   1.26930872  1.79224773 -0.00067559
H   2.23977846 -2.40704446 -0.00038761
H  -0.16622494 -2.97655403 -0.00111443

