30
Total Energy                               R     -3.170466448347978E+03
C   1.59309514  1.31948546 -0.05291496
C   1.48500917  2.45146159 -1.07587367
C   1.79575667  1.93720040  1.34185293
N   2.65722272  0.37129014 -0.48583224
O   3.94385485  0.76248378 -0.13483526
C   2.29483368 -1.00326861 -0.04093513
C   2.83467607 -2.01270736 -1.05497986
C   2.80644317 -1.39146136  1.35746246
C   0.78918045 -0.91929611 -0.04901895
C   0.38707512  0.41300079 -0.05651383
C  -0.95785310  0.75425772 -0.03793603
C  -1.88868302 -0.28021311 -0.01018340
Br  -3.75265360  0.15337435  0.01438785
C  -1.50981940 -1.61722273 -0.00199480
C  -0.15205065 -1.93760323 -0.02218014
H   2.42981541  3.00145573 -1.11617554
H   0.69276045  3.16035272 -0.81255094
H   1.27642562  2.05499441 -2.07392402
H   2.76180943  2.44504059  1.37561291
H   1.77783062  1.18935572  2.13665271
H   1.00597126  2.66613169  1.55180411
H   3.92635982 -1.94946312 -1.09165778
H   2.44585586 -1.80372513 -2.05600290
H   2.56511164 -3.03973729 -0.78657952
H   3.88989109 -1.25908184  1.39332332
H   2.56988499 -2.43902542  1.57134548
H   2.36411483 -0.78278189  2.14823100
H  -1.27459528  1.79197340 -0.04540434
H  -2.25593117 -2.40357244  0.01805919
H   0.15019384 -2.98072136 -0.01750828

