64
Total Energy                               R     -1.766562904133990E+03
C  -0.08682932 -0.02239876 -0.69262295
C  -0.58669107  1.15012811 -1.54928213
C  -0.85649602  0.00210351  0.64780127
N  -0.26627740 -1.24572930 -1.51203063
O  -1.63271629 -1.42008269 -1.82366747
C   0.28725974 -2.51280729 -0.97456843
C  -0.48339739 -3.13185140  0.21516035
C   0.24112506 -3.51969332 -2.13787585
C   1.73447321 -2.30131392 -0.54885455
C   2.23879326 -0.99506323 -0.29088674
C   1.39094436  0.14566097 -0.37775651
C   1.90997496  1.37902512 -0.08647648
C   3.26397257  1.56196400  0.26885077
C   3.69370930  2.95931858  0.54579726
O   2.92200606  3.87163389  0.75780670
O   5.01414020  3.12844483  0.52958519
C   4.10354889  0.47528520  0.35851577
C   5.53243280  0.58756920  0.80384715
O   5.87580240  0.62145472  1.96368029
O   6.38625494  0.57232603 -0.21592771
C   3.60188543 -0.83104994  0.09921268
C   4.42516567 -1.97576931  0.24981267
C   3.90908123 -3.22205774  0.03236714
C   2.56839673 -3.38016014 -0.36604577
H  -1.63695853  1.00291181 -1.79215655
H  -0.01985964  1.22147352 -2.48222321
H  -0.50636155  2.10160475 -1.02200425
H  -1.87740079 -0.34565653  0.49351953
H  -0.89872041  1.02270126  1.03680412
H  -0.38563112 -0.61748952  1.41151996
H  -1.55398641 -3.14697677  0.00475318
H  -0.31972952 -2.59544028  1.14928110
H  -0.15501498 -4.16337480  0.36952645
H  -0.78910297 -3.64917429 -2.47103321
H   0.61676481 -4.50070044 -1.84314850
H   0.83577930 -3.16274239 -2.98340290
H   1.28502241  2.26099055 -0.12112826
H   5.23101260  4.04536365  0.74998291
H   7.29547860  0.60662441  0.11700709
H   5.46238223 -1.87137086  0.54913409
H   4.53385946 -4.09935074  0.16100368
H   2.19995140 -4.38658463 -0.52548795
N  -5.06835374 -1.06106615  1.62528254
C  -4.44586282 -1.53841358  0.35714028
C  -4.06722242 -0.27999984  2.40705264
C  -6.23357827 -0.18775203  1.30724777
C  -5.52407741 -2.23156506  2.42557606
H  -3.21240977 -0.91980987  2.61923238
H  -4.12825873 -0.67452881 -0.22273458
H  -3.59211787 -2.16667738  0.60380374
H  -5.18594700 -2.11164133 -0.19915728
H  -6.25127051 -2.79318264  1.84155604
H  -4.66136765 -2.85593996  2.65227188
H  -5.97957236 -1.87124551  3.34629554
H  -5.88408704  0.66113560  0.72281754
H  -6.95810532 -0.76509869  0.73535369
H  -6.67804844  0.15563304  2.24003468
H  -3.75968009  0.57988390  1.81552274
H  -4.53152169  0.04715020  3.33622216
B  -4.12946594  2.49083897 -0.95040719
F  -3.42660896  3.39935691 -1.76792923
F  -3.44576470  2.33449943  0.27306107
F  -5.42665499  2.98745626 -0.69857283
F  -4.22640470  1.24621150 -1.60542386

