32
Total Energy                               R     -6.720940359022594E+02
C   0.81886505  1.36574545 -0.05874068
C   1.05567104  1.77843256  1.40532459
C   1.44041198  2.38964886 -0.99638558
N   1.55957849  0.05119443 -0.25405587
O   2.65874382  0.09047319 -0.67469531
C   0.97993811 -1.30653556  0.11818091
C   1.73203363 -2.36120740 -0.67936969
C   1.25180682 -1.49906649  1.62113666
C  -0.51278515 -1.32126680 -0.22749835
C  -1.26601047 -0.09217742  0.25535044
C  -2.73304424 -0.18549353 -0.08849993
O  -3.23455401 -1.02319838 -0.80538725
O  -3.44409886  0.78317431  0.49369211
C  -0.66407974  1.16000760 -0.38699241
H   2.46095970  2.64081618 -0.70817530
H   2.11735404  1.73659939  1.65391831
H   0.72222369  2.81440013  1.48577700
H   1.42958992  2.04084731 -2.03074211
H   0.83342640  3.29401906 -0.93174584
H  -0.77882935  1.09838207 -1.47319520
H   1.69254154 -2.15434987 -1.75054144
H  -0.61967386 -1.41108926 -1.31169489
H   1.23692534 -3.31573435 -0.49426329
H   2.77168559 -2.44807542 -0.36401887
H   1.04260651 -2.54891019  1.83354581
H   2.29886851 -1.30192385  1.85672059
H   0.61488145 -0.89219116  2.26005286
H  -0.91926882 -2.23150155  0.21734071
H  -1.21868152 -0.00407262  1.34406575
H  -4.37428344  0.70528268  0.23787784
H   0.49082659  1.18429939  2.11983245
H  -1.17577148  2.06272434 -0.05027537

