32
Total Energy                               R     -6.723921411893504E+02
C   0.83616294  1.28452202 -0.11792167
C   1.06501692  1.73547591  1.33912726
C   1.35239338  2.40453610 -1.03112765
N   1.51265398  0.02597901 -0.52466002
O   2.91230800  0.12688185 -0.31800209
C   0.99328518 -1.23632283  0.06203529
C   1.65028560 -2.40171134 -0.68921068
C   1.26857690 -1.44364463  1.56569535
C  -0.51565161 -1.32584876 -0.21566177
C  -1.27539329 -0.09914536  0.26362739
C  -2.74006320 -0.17198939 -0.06590868
O  -3.24436773 -0.86351003 -0.92764900
O  -3.47526928  0.65365278  0.69346533
C  -0.67053172  1.14938000 -0.39213485
H   2.39124799  2.65688784 -0.80773285
H   2.12055366  1.65592925  1.60878134
H   0.77365476  2.78454626  1.45069799
H   1.28885913  2.11054088 -2.08295711
H   0.75170736  3.30925418 -0.89376495
H  -0.83330679  1.08771134 -1.47450984
H   2.70795460 -2.50263161 -0.43662713
H  -0.66974509 -1.43750954 -1.29415468
H   1.56774443 -2.26420289 -1.77149833
H   2.29560579 -1.16678418  1.81389722
H   1.15552071 -3.34264291 -0.42835298
H   1.13950632 -2.49968186  1.82292084
H   0.60175932 -0.87349189  2.21288928
H  -0.90833799 -2.23024764  0.26012577
H  -1.20902675  0.00043026  1.35000568
H  -4.40206782  0.60580501  0.42006710
H   0.48835458  1.16351059  2.06645303
H  -1.17441665  2.05301688 -0.03725414

