54
Total Energy                               R     -1.291159985487947E+03
C   0.05857572 -1.30061378 -1.30617159
C   0.05057211 -2.00845448 -2.66097739
C   0.54026379  0.14718703 -1.51811455
N   0.84116147 -2.11019002 -0.33183961
O   2.22878841 -1.89526965 -0.41062153
C   0.27493106 -1.92888033  1.03488393
C   0.45893037 -3.21876766  1.83516896
C   0.86288043 -0.76595254  1.85451282
C  -1.16910466 -1.64803783  0.69862945
C  -1.29429172 -1.29219294 -0.63843374
C  -2.51846008 -0.93479087 -1.17827063
C  -3.65152423 -0.91654786 -0.35647607
N  -4.90691551 -0.58691486 -0.89004454
C  -3.52508311 -1.27912328  0.99034252
C  -2.28860147 -1.64426862  1.51780378
H   1.07001639 -2.08686170 -3.05186788
H  -0.54476322 -1.45466644 -3.39359506
H  -0.36264219 -3.01700204 -2.57392343
H   1.55388987  0.16795329 -1.92605678
H   0.52896153  0.73067722 -0.59740915
H  -0.12027756  0.64713970 -2.23280104
H   1.52374083 -3.43719557  1.96634329
H  -0.00576522 -4.06656276  1.32446762
H   0.01313523 -3.13158684  2.83111311
H   1.93172543 -0.91030499  2.03423288
H   0.36223435 -0.71920491  2.82656691
H   0.72308469  0.19966244  1.36790744
H  -2.60637896 -0.64408914 -2.22224040
H  -4.84400027  0.03832872 -1.68261601
H  -5.53914462 -0.20253996 -0.20071555
H  -4.40470238 -1.26397901  1.62799175
H  -2.21188413 -1.91152908  2.56836348
N   4.69441588  1.06288248  0.02034129
C   5.04487626  0.06134759  1.06751758
C   5.72880343  2.13394054 -0.01363969
C   4.62690976  0.38556999 -1.30719463
C   3.36515137  1.65889519  0.33647648
H   5.76771309  2.61316834  0.96321337
H   6.01842746 -0.36474364  0.83082676
H   5.07791524  0.56262451  2.03335565
H   4.28314083 -0.71707985  1.07146134
H   2.63453608  0.85587914  0.37412320
H   3.42675473  2.16089511  1.30066847
H   3.10492599  2.37142978 -0.44438606
H   5.60210941 -0.04632537 -1.52682161
H   3.86624568 -0.39347092 -1.25636084
H   4.36561071  1.12488795 -2.06255690
H   6.69161443  1.68404307 -0.25048747
H   5.45549287  2.85993824 -0.77746357
B  -2.55990592  2.68490452  0.25849755
F  -1.63587791  1.86758795  0.93823561
F  -2.25734301  4.04185056  0.51208386
F  -2.48440405  2.44417196 -1.12853345
F  -3.86483071  2.40548346  0.71661484

