54
Total Energy                               R     -1.291053147014804E+03
C  -0.47530595 -1.68722868 -1.33998209
C  -0.98373238 -2.87604851 -2.16294917
C   0.31058974 -0.72552545 -2.22368343
N   0.36681746 -2.18017394 -0.21783809
O   1.45102818 -2.80619669 -0.42137533
C  -0.30157986 -2.17991654  1.11129445
C  -0.69746916 -3.61099247  1.48932126
C   0.61858126 -1.58621645  2.17357319
C  -1.49383111 -1.31338290  0.79616837
C  -1.58401063 -1.02690430 -0.55982458
C  -2.59478151 -0.22682723 -1.06480601
C  -3.54340356  0.30963127 -0.18741929
N  -4.59615187  1.08812356 -0.67402008
C  -3.45543798  0.01195051  1.18045996
C  -2.43631706 -0.79408469  1.67218304
H  -0.14466519 -3.40818850 -2.61849557
H  -1.63542156 -2.51297610 -2.96132896
H  -1.55131116 -3.57391132 -1.54380994
H   1.15582567 -1.23681414 -2.68997695
H   0.67939252  0.12930125 -1.65727364
H  -0.33994535 -0.35498064 -3.01937068
H   0.19157847 -4.23651311  1.60513579
H  -1.34673450 -4.05596959  0.73237825
H  -1.23500556 -3.59855452  2.44070925
H   1.52192011 -2.19089970  2.28403167
H   0.09857572 -1.57846892  3.13461160
H   0.90375238 -0.56164169  1.93111278
H  -2.64874387  0.00121645 -2.12575038
H  -4.38195380  1.56810632 -1.53725595
H  -4.97315729  1.73251580  0.00719830
H  -4.19098864  0.43094883  1.86098286
H  -2.37875358 -1.00112018  2.73665515
N   3.84403625  0.56560120  0.00629502
C   4.07381036 -0.45416059  1.06850263
C   4.93048829  1.58388431  0.04795351
C   3.83817286 -0.10621740 -1.32437219
C   2.52819263  1.22959786  0.23257133
H   4.92002923  2.06617797  1.02385024
H   5.04699361 -0.91428303  0.90490814
H   4.04856047  0.03834011  2.03895784
H   3.28903687 -1.20521973  1.00503691
H   1.75074147  0.47197273  0.19287190
H   2.54096648  1.70622948  1.21056409
H   2.37242680  1.97135498 -0.54832397
H   4.81535625 -0.55645603 -1.49148510
H   3.06797466 -0.87459215 -1.32106567
H   3.62911692  0.63681677 -2.09203578
H   5.88426929  1.08458802 -0.11443813
H   4.75263417  2.31791800 -0.73592375
B  -0.66338825  3.03450202  0.13296388
F  -0.35442580  1.99683259  1.03291630
F   0.21282384  4.12016546  0.35596658
F  -0.51258716  2.58159439 -1.19345731
F  -1.99475127  3.45495844  0.33776435

