54
Total Energy                               R     -1.290864990545475E+03
C  -0.47115116 -0.64885795 -1.23669547
C  -1.54363450 -0.12595394 -2.18360951
C   0.55342917 -1.52972688 -1.96655540
N  -1.12027556 -1.52545161 -0.18850677
O  -1.85514894 -2.39787030 -0.45547647
C  -0.70444667 -1.20303720  1.22911655
C  -1.94348862 -1.10244118  2.10910267
C   0.21173223 -2.35473498  1.67103254
C   0.02775584  0.08664850  0.99349530
C   0.16208604  0.38842298 -0.35318092
C   0.84499180  1.51109047 -0.78343458
C   1.41995314  2.35966060  0.16992303
N   2.08681489  3.51192519 -0.22603904
C   1.27684571  2.05467378  1.53405004
C   0.58479579  0.92666768  1.94759427
H  -2.05527296 -0.95012049 -2.68243815
H  -1.04047040  0.47984336 -2.93911861
H  -2.26425088  0.49691822 -1.65675175
H   0.04688715 -2.33535316 -2.50078146
H   1.28923639 -1.94607295 -1.27807296
H   1.06770332 -0.89151739 -2.68693018
H  -2.49223841 -2.04528114  2.11805873
H  -2.59479652 -0.29440390  1.78003581
H  -1.60040672 -0.89136865  3.12367614
H  -0.35525789 -3.28404876  1.74834155
H   0.60365557 -2.09035743  2.65459958
H   1.04807733 -2.48876331  0.98464487
H   0.94782707  1.72906753 -1.84214259
H   2.47443909  3.47319384 -1.15822160
H   2.76159019  3.85637106  0.44226671
H   1.72503981  2.71364324  2.27109644
H   0.49460886  0.70138354  3.00519905
N   4.55681970 -0.38989777 -0.17787501
C   3.46121467 -1.05873488  0.57911113
C   4.10453488 -0.13455357 -1.57524738
C   4.89881687  0.90432713  0.47726846
C   5.75846238 -1.27079835 -0.19383785
H   3.84902483 -1.08547970 -2.03954194
H   2.58437600 -0.41659401  0.55961359
H   3.24354561 -2.01242554  0.10144550
H   3.78853304 -1.21769011  1.60516688
H   6.06891324 -1.45581329  0.83300559
H   5.49827653 -2.20803350 -0.68262742
H   6.55366084 -0.76928318 -0.74263978
H   4.01426182  1.53823609  0.48437733
H   5.22531085  0.70361915  1.49636748
H   5.69844390  1.38057510 -0.08753151
H   3.23300033  0.51733491 -1.54498155
H   4.91522690  0.34464615 -2.12155243
B  -4.64537421  0.57626710 -0.14520308
F  -3.54983496  1.35587876  0.28606010
F  -5.68787766  0.67136076  0.79836523
F  -5.09180573  1.04980836 -1.39593486
F  -4.24556845 -0.77066374 -0.27033356

