41
Total Energy                               R     -1.398410407629007E+03
C   2.11689256 -1.34939162 -1.02789999
C   2.47535195 -2.81387011 -1.29093517
C   2.45126497 -0.44002270 -2.21351350
N   2.94279622 -0.88228883  0.14543847
O   4.11620410 -0.87502306  0.13124651
C   2.13818445 -0.42720453  1.33748277
C   2.50215985 -1.34455839  2.50902089
C   2.50008142  1.03458902  1.60703550
C   0.74595385 -0.63512304  0.81025676
C   0.73489654 -1.14897061 -0.47519208
C  -0.45729016 -1.41964649 -1.12521850
C  -1.65128528 -1.16397267 -0.46322466
C  -2.91536712 -1.43769821 -1.22452936
O  -3.24871798 -2.53250069 -1.60041943
O  -3.57509257 -0.31841064 -1.51573178
C  -1.64394427 -0.65036765  0.84186669
C  -2.92840816 -0.48032089  1.57722149
O  -3.94929437 -1.06004594  1.29579109
O  -2.82884102  0.36181377  2.60599333
C  -0.43651443 -0.37855350  1.48014780
H   3.51932409 -2.90513484 -1.59470755
H   1.84023190 -3.15982650 -2.10801986
H   2.28641723 -3.43134995 -0.41122609
H   3.49147773 -0.57273974 -2.51534826
H   2.26086008  0.60713924 -1.97486159
H   1.80398029 -0.73681942 -3.04044088
H   3.54965239 -1.21455547  2.78581368
H   2.30506999 -2.39105675  2.27074169
H   1.87658838 -1.05054174  3.35360837
H   1.87268270  1.37452314  2.43244293
H   2.30331702  1.65888054  0.73520912
H   3.54684536  1.12026592  1.90321813
H  -0.46189633 -1.80792604 -2.13783869
H  -4.38619201 -0.54291660 -1.99879572
H  -3.68287297  0.40282439  3.06363025
H  -0.42532122  0.01169911  2.49027077
B  -0.00676795  3.17189000 -0.62465127
F  -0.25754987  3.03934275  0.75615416
F  -0.53305949  2.06174955 -1.31316126
F  -0.61545543  4.35282858 -1.10109971
F   1.38697362  3.24364661 -0.84618862

