53
Total Energy                               R     -1.188197808719013E+03
C  -0.59398527 -0.75850601  1.32338886
C  -1.36295884 -1.81851357  0.53730467
C  -0.47802437 -1.14059145  2.80016104
N  -1.26428772  0.55910565  1.19215401
O  -2.42663394  0.76288625  1.64379815
C  -0.41213540  1.66392134  0.68535361
C  -1.05050822  2.29684138 -0.54972646
C  -0.19406369  2.70178852  1.78765591
C   0.84661792  0.90100622  0.36388653
C   0.74444408 -0.43789663  0.71263796
C   1.79985010 -1.31022029  0.49429920
C   2.97016525 -0.82538375 -0.07839337
C   4.09595052 -1.79953796 -0.24810309
O   4.03081530 -2.79804067 -0.92000617
O   5.15183526 -1.48439789  0.50341238
C   3.07294353  0.52614403 -0.44242344
C   4.28065809  1.00881251 -1.16509612
O   5.01428232  0.29975914 -1.81182273
O   4.46186965  2.32692867 -1.05319565
C   2.00480190  1.39273982 -0.21414136
H  -2.37315536 -1.92348621  0.94007770
H  -0.85865839 -2.78414027  0.62363590
H  -1.42811184 -1.55391518 -0.52087559
H  -1.47309562 -1.26462704  3.23379062
H   0.05868549 -0.37294655  3.36288876
H   0.06150587 -2.08593903  2.89747291
H  -2.02367345  2.72181788 -0.29360844
H  -1.18372767  1.56096145 -1.34621996
H  -0.41286707  3.10155853 -0.92408724
H   0.47572809  3.48753967  1.42939929
H   0.24916884  2.24406983  2.67542668
H  -1.14613722  3.16013556  2.06529120
H   1.72407836 -2.35457878  0.77901248
H   5.85829907 -2.12937861  0.34256592
H   5.23399275  2.58304259 -1.58096939
H   2.07650365  2.43379273 -0.50681882
N  -5.12189970 -0.41847702 -1.03459456
C  -3.97931724  0.47324601 -1.38471867
C  -5.35282524 -0.36922855  0.43796570
C  -6.34815381  0.03713040 -1.74835696
C  -4.80170375 -1.81649429 -1.44049775
H  -4.43654900 -0.66420627  0.94537833
H  -4.21976314  1.48696542 -1.07013640
H  -3.09271507  0.12132724 -0.86413070
H  -3.82650502  0.43782572 -2.46228266
H  -4.61701653 -1.83486365 -2.51320495
H  -3.91504455 -2.14164398 -0.89965362
H  -5.64838072 -2.45465457 -1.19325109
H  -6.56005134  1.06451591 -1.45727430
H  -6.16845211 -0.02074005 -2.82060371
H  -7.17637938 -0.61242570 -1.46954235
H  -5.61600766  0.65025394  0.71472769
H  -6.16624147 -1.04929125  0.68541040

