53
Total Energy                               R     -1.188296890510560E+03
C   0.53183412 -1.23587491  0.66728939
C   0.54559971 -2.34286788  1.72236037
C   1.15251072 -1.78634301 -0.62943830
N   1.19261211 -0.02537671  1.22346187
O   2.57547161 -0.03487729  1.09000135
C   0.54849380  1.19453151  0.66874214
C   0.57724585  2.29963814  1.72526300
C   1.17812757  1.73787996 -0.62653491
C  -0.84359168  0.68327731  0.39818053
C  -0.85290947 -0.70618130  0.39881290
C  -2.02338519 -1.40561623  0.14480663
C  -3.19514423 -0.69963019 -0.11604957
C  -4.41218424 -1.50636888 -0.44310535
O  -4.90879723 -2.31940876  0.29663938
O  -4.83799768 -1.29690698 -1.69156048
C  -3.19263573  0.70331800 -0.10332225
C  -4.46979635  1.44648611 -0.25137170
O  -5.56207683  0.98524927 -0.01407648
O  -4.29707677  2.71106928 -0.65089867
C  -2.00545122  1.39474436  0.15245704
H   1.58032532 -2.59350499  1.97437382
H   0.05591595 -3.25278786  1.36009852
H   0.03931210 -2.01686764  2.63533191
H   2.19232328 -2.06461860 -0.44807414
H   1.13060095 -1.05989403 -1.44367603
H   0.60485609 -2.67551164 -0.95821428
H   1.61494762  2.53633834  1.97857003
H   0.06564848  1.97955183  2.63741514
H   0.10030401  3.21666360  1.36372040
H   0.63643536  2.62934891 -0.95931348
H   1.15428501  1.00958582 -1.43902665
H   2.21907891  2.01109991 -0.44431576
H  -2.03247376 -2.49119769  0.13016827
H  -5.63396296 -1.82935826 -1.84592057
H  -5.16197618  3.14797695 -0.67878663
H  -2.00756648  2.47863958  0.17805439
N   5.36163901  0.00312742 -0.63609361
C   4.22553579 -0.04685763 -1.60222852
C   5.28767177 -1.19503293  0.25118196
C   6.65657967  0.02080366 -1.36463321
C   5.22699424  1.23320632  0.19884721
H   4.32067374 -1.16503823  0.75967032
H   4.31812796 -0.95243353 -2.20109514
H   3.31216813 -0.05520132 -1.00395749
H   4.27452411  0.83261847 -2.24350203
H   5.26885086  2.10231275 -0.45712663
H   4.26443606  1.17289764  0.71334034
H   6.05451195  1.26179736  0.90727192
H   6.73374159 -0.88314266 -1.96724707
H   6.68703906  0.90075056 -2.00574930
H   7.46849536  0.05756411 -0.63930550
H   5.37940195 -2.08823285 -0.36613062
H   6.11106231 -1.14929017  0.96346348

