56
Total Energy                               R     -1.153216295072822E+03
C  -0.32097084  0.86225575 -0.08134511
C   0.08941971  2.20577482  0.51262896
C   0.03245209  0.85478108 -1.58210889
N   0.46177773 -0.18818474  0.63554861
O   1.56309420  0.14228054  1.18069486
C   0.26009993 -1.63937621  0.41464201
C   1.28807048 -2.14235242 -0.61098900
C   0.50230478 -2.33763752  1.76300350
C  -1.17357056 -1.90525059 -0.01264936
C  -2.15738974 -0.87590459 -0.03376661
C  -1.80318735  0.51155895  0.05460451
C  -2.81902557  1.44054035  0.09823245
C  -2.66429129  2.92829675  0.17524615
O  -2.76160014  3.56745281  1.19877584
O  -2.52626878  3.49166672 -1.02493104
C  -4.18423848  1.05186561  0.04239623
C  -4.52700378 -0.25370190 -0.12254296
C  -3.52238480 -1.24954649 -0.18533313
C  -3.86965735 -2.60244044 -0.40642178
C  -2.89466293 -3.55876162 -0.47578581
C  -1.55027502 -3.20563752 -0.25942616
H   1.17031675  2.31510136  0.44578648
H  -0.20573349  2.30247132  1.55854161
H  -0.33561081  3.02289985 -0.06522005
H   1.10591838  0.99934708 -1.72154286
H  -0.49288767  1.67884245 -2.06952515
H  -0.26912296 -0.07119574 -2.07328147
H   2.29681973 -1.93003729 -0.25476456
H   1.15427886 -1.67777298 -1.58828588
H   1.19756407 -3.22327575 -0.72938179
H   1.51735689 -2.15074781  2.11488937
H   0.37553015 -3.41460973  1.64659958
H  -0.20594506 -1.98498206  2.51665078
H  -2.48311320  4.45506589 -0.93152107
H  -4.95112641  1.81759852  0.09611824
H  -5.56806019 -0.54547340 -0.21282115
H  -4.91691902 -2.86053078 -0.52660606
H  -3.15045143 -4.59593108 -0.66317056
H  -0.80692244 -3.99506316 -0.25165358
N   5.04768418  0.30288508 -0.19469036
C   4.92022977 -0.94218244  0.61594840
C   4.95603088  1.49064377  0.70205318
C   6.36355033  0.30584085 -0.89322891
C   3.94663814  0.36024990 -1.19859373
H   3.98813573  1.47774837  1.20019565
H   5.73905798 -0.97368476  1.33298686
H   3.96412889 -0.92550438  1.13559953
H   4.97302150 -1.80011887 -0.05198708
H   4.01664982 -0.51005135 -1.84859591
H   3.00083573  0.35853140 -0.66245766
H   4.05317309  1.27454545 -1.78016838
H   7.15594383  0.26722317 -0.14743640
H   6.41570635 -0.56594812 -1.54320058
H   6.44539504  1.21789822 -1.48182563
H   5.75902400  1.43806343  1.43530452
H   5.05616979  2.39139130  0.09906449

