44
Total Energy                               R     -1.363435026636734E+03
C  -0.36456522 -1.75753219 -0.48693974
C  -1.46148036 -2.02149655 -1.50295093
C  -0.03632054 -3.06203607  0.27254373
N   0.87565326 -1.38831714 -1.28217689
O   0.85278263 -1.49421502 -2.45259373
C   2.16798494 -0.95861641 -0.63911485
C   3.03785943 -2.23419941 -0.57311387
C   2.82012419  0.05566049 -1.58674063
C   1.88521214 -0.34072861  0.71573298
C   0.56361447 -0.08580543  1.17269169
C  -0.58759832 -0.63556435  0.52696467
C  -1.83689422 -0.26335116  0.96509231
C  -3.15215574 -0.71244810  0.40363300
O  -3.78189485 -0.08869698 -0.41819198
O  -3.60218631 -1.81946982  0.99182169
C  -1.99187561  0.62227593  2.06240201
C  -0.90660142  1.08859178  2.73724300
C   0.39827744  0.73807306  2.31828421
C   1.53046481  1.19754724  3.03066493
C   2.78889595  0.85787309  2.61930554
C   2.96204994  0.10197261  1.44528920
H  -1.13014600 -2.77753541 -2.21425533
H  -1.74777070 -1.12176384 -2.04604648
H  -2.32551178 -2.44278740 -0.99616696
H   0.31117302 -3.83468636 -0.41525030
H  -0.97369398 -3.38791012  0.72543387
H   0.68994857 -2.91522392  1.06967904
H   3.10371868 -2.68820475 -1.56298415
H   2.66779912 -2.96136247  0.14573586
H   4.03757112 -1.92275246 -0.27083821
H   3.04102875 -0.39850139 -2.55197742
H   3.75936615  0.37487338 -1.13768449
H   2.18106041  0.92712719 -1.72307440
H  -4.47873394 -2.04415191  0.64463929
H  -2.99306754  0.89790883  2.37556061
H  -1.02849823  1.73281507  3.60134333
H   1.37773319  1.81729541  3.90801110
H   3.66064328  1.19301708  3.16971259
H   3.97126167 -0.09616309  1.10177754
B  -0.36433554  2.46553794 -1.47651859
F   0.71985665  2.72069599 -0.61413304
F  -1.57499732  2.66936937 -0.78829138
F  -0.29767935  3.33722309 -2.58386904
F  -0.30088440  1.13007773 -1.93815048

