28
Total Energy                               R     -6.116831846380520E+02
C   1.51903455 -0.82472404  0.07394091
C   2.32629399 -1.34328849 -1.11682968
C   2.27320273 -0.97568051  1.40139403
N   1.25863276  0.64123092 -0.13124368
O   2.11091958  1.42769291 -0.31432885
C  -0.20074589  1.00603489 -0.06557174
C  -0.36557971  1.85812458  1.20304178
C  -0.55686110  1.78053262 -1.33349327
C  -0.80599371 -0.37670467  0.03153814
C  -2.29215241 -0.54193601  0.06437611
O  -3.01519773  0.39234055  0.38997055
N  -2.76136152 -1.75588693 -0.27064313
C   0.11260771 -1.33286024  0.12319652
H   3.31712238 -0.88673753 -1.13793003
H   1.80784257 -1.15212233 -2.05805981
H   2.44058581 -2.42081343 -0.98887137
H   3.25774880 -0.50957912  1.33460552
H   2.39990666 -2.04463353  1.58059709
H   1.71013001 -0.54241305  2.22942361
H   0.21117401  2.78047023  1.11279848
H  -0.05130214  1.30834312  2.09158830
H  -1.42288247  2.10275190  1.29230506
H  -0.00153385  2.71857742 -1.37832041
H  -1.62173277  2.01011146 -1.29109662
H  -0.35561509  1.18740941 -2.22744312
H  -2.17408862 -2.49205393 -0.62751117
H  -3.75666237 -1.91883442 -0.24723978
H  -0.06620330 -2.39514057  0.23367152

