28
Total Energy                               R     -6.119499240106546E+02
C   1.59178948 -0.59099105  0.19817635
C   2.58937099 -1.27162207 -0.73556118
C   2.14865622 -0.67832094  1.62894100
N   1.31992693  0.84970046 -0.18235884
O   1.63200302  1.06181529 -1.53500587
C  -0.16396823  1.05085369  0.06047561
C  -0.38494879  1.70823092  1.43238789
C  -0.80511067  1.94349056 -0.99772351
C  -0.73759210 -0.36353442  0.03847283
C  -2.19072182 -0.68354586  0.01395385
O  -3.03299388  0.02495616  0.56203750
N  -2.53251742 -1.81580723 -0.64469738
C   0.24214921 -1.25935637  0.12688159
H   3.56360765 -0.77632838 -0.69514519
H   2.24331501 -1.24744889 -1.76750546
H   2.72496571 -2.31288541 -0.42106369
H   3.10491408 -0.14821619  1.68900866
H   2.32240515 -1.72198541  1.91463108
H   1.47457168 -0.24313115  2.36804205
H   0.11335146  2.68300778  1.45785505
H   0.01127330  1.10658003  2.25196710
H  -1.45163078  1.85960976  1.61866540
H  -0.34600073  2.93592933 -0.99585971
H  -1.87009659  2.06107223 -0.77478628
H  -0.68589889  1.52295838 -1.99518839
H  -1.86082878 -2.34950758 -1.17104109
H  -3.50084899 -2.09417419 -0.68296344
H   0.11521530 -2.33813121  0.18049792

