38
Total Energy                               R     -8.058736201933489E+02
N   1.81050887 -0.04208342 -0.60814548
O   3.19331628 -0.33359865 -0.59816312
C   1.04536208 -1.27138412 -0.23772725
C   1.16888003 -2.18216205 -1.47653042
C  -0.88123398  0.41901927 -0.07886246
C  -2.27054209  0.73042320 -0.10456016
C  -2.69977853  2.07757647 -0.19415009
C  -3.20677922 -0.32532102 -0.00619795
H  -3.76540006  2.28530355 -0.23120551
H  -4.26865375 -0.09910097 -0.02680825
C  -1.78331076  3.09088485 -0.21696139
C  -2.77647158 -1.60750076  0.14776220
H  -2.10297816  4.12570770 -0.28504959
H  -3.49568591 -2.41442368  0.25953618
C  -0.40626349  2.79228311 -0.11665958
C  -1.39319659 -1.93522091  0.14652616
H   0.28902072  3.62203550 -0.08315019
N  -1.09416677 -3.29618984  0.26988984
C   0.05428137  1.49925930 -0.03806543
C  -0.43845929 -0.93783584 -0.03717359
C   1.51927582  1.16760580  0.19888375
C   1.74260691  1.01642950  1.72003343
C   1.62832812 -2.00648907  1.00247318
C   2.43011018  2.29465013 -0.29489417
H   2.29428830  2.47926141 -1.36473274
H   0.76022188 -1.67762048 -2.35631311
H   2.23348468  3.22404277  0.24252830
H   0.64301725 -3.12804437 -1.35073006
H   3.47348536  2.03713010 -0.11988223
H   2.21962913 -2.40801312 -1.66855982
H   1.02394121  0.33398505  2.17738296
H   1.01848729 -1.87425251  1.89851015
H   2.75040093  0.64650999  1.92674576
H   2.62920365 -1.62742385  1.20516080
H   1.63420491  1.98813747  2.21095945
H   1.73943401 -3.08054199  0.82392699
H  -0.20323298 -3.50953982  0.68972750
H  -1.83064724 -3.81975784  0.72167046

