38
Total Energy                               R     -8.055738314087080E+02
N   1.66287025 -0.81735603 -0.38127142
O   2.51247473 -1.20294163 -1.10289757
C   0.38213496 -1.61641653 -0.27871587
C   0.17191745 -2.26083633 -1.65314346
C  -0.59642894  0.72499829 -0.02588686
C  -1.71364025  1.59647120 -0.09486856
C  -1.51600932  2.98164781 -0.28076264
C  -3.01133403  1.04018247  0.04191674
H  -2.38607272  3.62791847 -0.34236188
H  -3.87465457  1.69675535  0.00627828
C  -0.25078467  3.50182206 -0.38031457
C  -3.17153148 -0.29403019  0.23669459
H  -0.10007221  4.56451744 -0.53230281
H  -4.16523788 -0.71189111  0.36439478
C   0.86506069  2.65830546 -0.23171710
C  -2.06332941 -1.19317540  0.23216963
H   1.85505180  3.09682212 -0.23941229
N  -2.36817428 -2.53812652  0.30447394
C   0.69965781  1.30991127 -0.01830739
C  -0.77992441 -0.68633062  0.05480016
C   1.87280756  0.44047623  0.41352602
C   1.77111997  0.09394871  1.90812751
C   0.71556901 -2.70578008  0.78255192
C   3.24683926  0.98844962  0.08434047
H   3.34237164  1.25898609 -0.96802949
H   0.13136528 -1.49950677 -2.43415748
H   3.42015811  1.87435001  0.69423541
H  -0.77845630 -2.79248178 -1.63107765
H   4.01525976  0.25662791  0.33682762
H   0.96011965 -2.97895747 -1.87794487
H   0.77260719 -0.22130150  2.20503643
H   0.42980568 -2.40313406  1.78750653
H   2.49846698 -0.67283052  2.18021451
H   1.77782239 -2.95197178  0.76903898
H   2.00847191  1.01134560  2.44896669
H   0.18973629 -3.62122827  0.51125740
H  -1.68940550 -3.15956661  0.71244990
H  -3.30275230 -2.74040607  0.62737930

