38
Total Energy                               R     -8.057607389155969E+02
N   1.82806435 -0.31928441 -0.40544903
O   2.99946023 -0.66378985 -0.76656823
C   0.85473145 -1.43430854 -0.22045399
C   0.87204198 -2.21923873 -1.54343838
C  -0.80433633  0.52517068 -0.05283869
C  -2.13852161  1.01844818 -0.09653014
C  -2.38599424  2.40601117 -0.22249201
C  -3.20945387  0.09935542  0.01180028
H  -3.41519661  2.74923842 -0.26846923
H  -4.22992932  0.46847777 -0.01560262
C  -1.34644568  3.29233522 -0.27521955
C  -2.96119531 -1.22693840  0.17282582
H  -1.52878351  4.35685868 -0.37574295
H  -3.78407345 -1.92746483  0.28042963
C  -0.02285774  2.82023837 -0.15939027
C  -1.63541156 -1.74408583  0.17173572
H   0.77825206  3.54872464 -0.14337227
N  -1.53043812 -3.13040485  0.24947064
C   0.25706519  1.48050581 -0.03579200
C  -0.55466093 -0.88134549  0.00991458
C   1.66334681  0.99579894  0.26389129
C   1.82914962  0.81230425  1.78480494
C   1.37586112 -2.32116779  0.93873628
C   2.74806511  1.93757910 -0.24798516
H   2.66589399  2.10290151 -1.32455800
H   0.62646144 -1.56145512 -2.38038680
H   2.67098920  2.89886428  0.25964064
H   0.14166731 -3.02644596 -1.51288123
H   3.73597152  1.53563905 -0.02852008
H   1.85539663 -2.65805490 -1.71589565
H   1.03128741  0.20415055  2.21398490
H   0.91983492 -2.06093040  1.89475486
H   2.79016801  0.34057424  2.00599166
H   2.45700318 -2.21020657  1.02915937
H   1.80262327  1.79253185  2.26622713
H   1.19825211 -3.38014066  0.74226519
H  -0.69268834 -3.50201254  0.66616147
H  -2.35049930 -3.57708057  0.63379615

