30
Total Energy                               R     -5.590352880909305E+02
C   0.03125165  0.38610195 -1.26741074
C  -1.45244109  0.63833317 -1.60437469
C   0.86605283  0.97264344 -2.41311340
N   0.52030663  0.98859040  0.00000000
O   0.29770798  2.39079695  0.00000000
C   0.03125165  0.38610195  1.26741074
C   0.86605283  0.97264344  2.41311340
C  -1.45244109  0.63833317  1.60437469
C   0.30991351 -1.12597976  1.23706455
C  -0.23776235 -1.81260715 -0.00000000
O   0.07279071 -3.21354773 -0.00000000
C   0.30991351 -1.12597976 -1.23706455
H   0.62704358  2.02267409 -2.59422583
H  -1.71187015  1.68833074 -1.45123485
H  -1.63648382  0.40323710 -2.65745262
H   1.93529784  0.89747805 -2.19366515
H   0.67067756  0.42295707 -3.33935417
H   1.39540944 -1.29050152 -1.26294520
H   1.93529784  0.89747805  2.19366515
H   1.39540944 -1.29050152  1.26294520
H   0.67067756  0.42295707  3.33935417
H   0.62704358  2.02267409  2.59422583
H  -1.63648382  0.40323710  2.65745262
H  -1.71187015  1.68833074  1.45123485
H  -2.13991392  0.03086852  1.01546400
H  -0.10936372 -1.58466115  2.13869665
H   1.03088059 -3.31092170 -0.00000000
H  -1.32935885 -1.78551336 -0.00000000
H  -2.13991392  0.03086852 -1.01546400
H  -0.10936372 -1.58466115 -2.13869665

