30
Total Energy                               R     -5.589251743543354E+02
C  -0.00827030  0.37451470  1.31775364
C   1.45825156  0.60406212  1.70848294
C  -0.91526754  1.02258635  2.36312300
N  -0.27620759  1.02599699 -0.00000000
O  -0.32366686  2.30218314 -0.00000000
C  -0.00827030  0.37451470 -1.31775364
C  -0.91526754  1.02258635 -2.36312300
C   1.45825156  0.60406212 -1.70848294
C  -0.33758233 -1.12066804 -1.23650262
C   0.21924445 -1.80489767  0.00000000
O  -0.09380644 -3.19861992  0.00000000
C  -0.33758233 -1.12066804  1.23650262
H  -0.64562178  2.06389795  2.54415772
H   1.70375826  1.66752447  1.65871144
H   1.61064025  0.26694820  2.73692690
H  -1.96356118  0.97877613  2.05727900
H  -0.81140635  0.47691595  3.30412313
H  -1.42706533 -1.24957758  1.23403435
H  -1.96356118  0.97877613 -2.05727900
H  -1.42706533 -1.24957758 -1.23403435
H  -0.81140635  0.47691595 -3.30412313
H  -0.64562178  2.06389795 -2.54415772
H   1.61064025  0.26694820 -2.73692690
H   1.70375826  1.66752447 -1.65871144
H   2.15393821  0.05805026 -1.07037856
H   0.04604160 -1.60061185 -2.14074237
H  -1.05175713 -3.29930398  0.00000000
H   1.31050590 -1.77158334  0.00000000
H   2.15393821  0.05805026  1.07037856
H   0.04604160 -1.60061185  2.14074237

