30
Total Energy                               R     -5.587379476060039E+02
C  -0.84529165 -1.10995734  0.02215000
C   0.09466632  1.76212365  1.51029349
C  -1.15771100 -1.33164130  1.51346559
N  -0.97331124  0.39060025 -0.21047318
O  -2.02311526  0.81337624 -0.53568709
C   0.15990407  1.38426971  0.01894395
C  -1.89844714 -1.79773620 -0.83417080
C  -0.12302017  2.60894672 -0.84013883
C   1.48778872  0.73067532 -0.37400042
C   1.67587656 -0.68184379  0.16022022
O   2.89915002 -1.23515504 -0.30871943
C   0.56328789 -1.56739244 -0.36604693
H  -0.91168816  2.08045552  1.78677231
H   0.77370573  2.60660851  1.63944989
H   0.41848499  0.96209762  2.17146692
H  -2.10565418 -0.86313069  1.78431526
H  -0.37276781 -0.97541310  2.17653336
H  -1.25285700 -2.41055151  1.64631020
H  -2.90938890 -1.57979093 -0.49067146
H  -1.73101862 -2.87235288 -0.74743629
H  -1.80142382 -1.51747553 -1.88486411
H  -1.00186039  3.15501417 -0.49797232
H   0.74329265  3.26652923 -0.75532092
H  -0.24806103  2.33722243 -1.89019123
H   1.56251630  0.70175462 -1.46533086
H   0.63633585 -1.60710615 -1.45740502
H   0.67279499 -2.58621332  0.01168266
H   3.62880498 -0.74956718  0.08704742
H   2.27814634  1.38898070 -0.00447408
H   1.68321710 -0.68169872  1.25435507

