59
Total Energy                               R     -1.341787576026659E+03
C   1.46091922  0.98968544  0.93408118
C   1.30434967  2.29673970  0.13458071
C   2.45523188  1.19132302  2.09036630
N   0.13012989  0.70266270  1.52517918
O  -0.40424482  1.64607112  2.18826044
C  -0.41953179 -0.67576731  1.64342973
C   0.46099659 -1.50550355  2.59677324
C  -1.81890967 -0.55834198  2.23573991
C  -0.35088856 -1.28593893  0.24367541
C   0.83971024 -1.03172150 -0.51503000
C   1.83540116 -0.10887005 -0.05865017
C   3.07488628 -0.13574903 -0.66780947
C   4.29155002  0.61207084 -0.20658931
O   5.10661849  0.13801986  0.55308455
O   4.44131967  1.79746848 -0.78917061
C   3.32326353 -0.93409371 -1.80996708
C   2.32602144 -1.68415018 -2.35513504
C   1.07216369 -1.76450738 -1.70897644
C   0.05748971 -2.60355714 -2.22681866
C  -1.10391387 -2.77077513 -1.53981040
C  -1.28691092 -2.15192595 -0.27599989
C  -2.51821790 -2.64783116  0.41904112
O  -2.52366208 -3.58045724  1.19215951
O  -3.62449214 -2.03628268  0.00667929
H   0.98481273  3.10422997  0.79361868
H   0.56783030  2.17457230 -0.66191393
H   2.25558351  2.57620738 -0.31392159
H   1.97314540  1.79079842  2.86408990
H   3.33310706  1.74937656  1.76512547
H   2.77839936  0.24542007  2.52555435
H   0.51122571 -1.01883233  3.57376889
H   1.47493977 -1.63929161  2.21664299
H   0.01393135 -2.49447222  2.71990788
H  -1.77335469  0.00369378  3.16636017
H  -2.20376791 -1.54295283  2.48903173
H  -2.51318670 -0.05508305  1.56211688
H   5.26522398  2.21062019 -0.49060198
H   4.30753990 -0.91316224 -2.26558615
H   2.49193411 -2.25393763 -3.26298329
H   0.22906389 -3.12496323 -3.16243906
H  -1.88056537 -3.42240438 -1.92613230
H  -4.39870568 -2.44124218  0.42505897
N  -2.98489286  2.44291281 -0.96764660
C  -3.95644827  2.60302835 -2.08579419
C  -2.18716741  1.20069908 -1.17304639
C  -2.07061907  3.61902156 -0.92621703
C  -3.72160498  2.34594136  0.32497674
H  -2.86431742  0.34947849 -1.19680824
H  -3.40330869  2.66978060 -3.02102619
H  -4.61745954  1.73820749 -2.10075993
H  -4.53085951  3.51348503 -1.92312495
H  -4.30623442  3.25425097  0.46185417
H  -4.37785898  1.47815580  0.28903592
H  -2.99799663  2.23938191  1.13145152
H  -1.51638591  3.66541028 -1.86195739
H  -2.66786673  4.52003490 -0.79728937
H  -1.38658391  3.49922048 -0.08850408
H  -1.64484523  1.28098906 -2.11368552
H  -1.49149347  1.10756974 -0.34485756

