59
Total Energy                               R     -1.341904711401100E+03
C  -0.07429274  2.08039353 -0.52809001
C   1.10620420  2.51586583 -1.41096862
C  -0.63722576  3.32835098  0.18802698
N  -1.01890851  1.40653171 -1.45858863
O  -1.41636423  2.31280506 -2.46507935
C  -2.23248368  0.78504942 -0.86326875
C  -3.27559352  1.79734319 -0.33073975
C  -2.85725952 -0.01671371 -2.01989733
C  -1.80741757 -0.16192802  0.25794265
C  -0.52348293 -0.00690845  0.88019154
C   0.36438461  1.06635380  0.52783081
C   1.58157168  1.13959140  1.18147835
C   2.66016186  2.15469002  0.96359956
O   3.72569658  1.89367617  0.44573087
O   2.39874051  3.33932240  1.51305161
C   1.97657303  0.18605526  2.15152567
C   1.14196164 -0.82663319  2.50048498
C  -0.12256399 -0.93998604  1.88185082
C  -0.97768870 -1.99711117  2.26218687
C  -2.20086460 -2.11963591  1.68268393
C  -2.61886732 -1.19650417  0.69385140
C  -4.02694051 -1.45155094  0.25466764
O  -4.98289260 -0.77180738  0.55783023
O  -4.14758126 -2.59959165 -0.41843462
H   0.71448404  3.07251321 -2.25902083
H   1.65996966  1.65485390 -1.79325735
H   1.79451092  3.18343494 -0.89645029
H   0.17695599  3.92116860  0.60685023
H  -1.30698843  3.06872690  1.00772354
H  -1.18081265  3.95305025 -0.52357026
H  -3.27252445  2.68566159 -0.96342937
H  -3.07793410  2.09908753  0.69796771
H  -4.27745877  1.36916411 -0.35697637
H  -2.96466573  0.64178366 -2.87967570
H  -3.85257273 -0.39405869 -1.79044277
H  -2.21911919 -0.85762977 -2.30441897
H   3.15256382  3.93311436  1.38027219
H   2.95346912  0.27595582  2.61438889
H   1.43302640 -1.55705032  3.24777730
H  -0.64658073 -2.69869316  3.02047549
H  -2.86919192 -2.92186873  1.97667297
H  -5.08259678 -2.76729383 -0.60795103
N   3.17544434 -2.32517127 -1.13243413
C   2.68865646 -3.71904836 -1.33341715
C   4.19046793 -1.99397206 -2.17189810
C   2.02869198 -1.37849727 -1.24130285
C   3.79111104 -2.20269182  0.21937421
H   5.01916031 -2.69518693 -2.08784681
H   2.25235527 -3.79669957 -2.32771276
H   3.53127803 -4.40176474 -1.23851357
H   1.93840627 -3.93921337 -0.57605084
H   3.04618577 -2.46607757  0.96762273
H   4.64070020 -2.88142284  0.27746606
H   4.11895623 -1.17439682  0.36194139
H   1.58767908 -1.47415450 -2.23208611
H   1.29621843 -1.63173104 -0.47775843
H   2.40144196 -0.36875498 -1.08920673
H   3.72610023 -2.07603304 -3.15300624
H   4.53981940 -0.97631879 -2.00609184

