47
Total Energy                               R     -1.552001096951822E+03
C   1.59955954 -0.34437024  1.25357724
C   1.75636098  1.05109938  1.87685926
C   2.62971016 -1.32360997  1.86013698
N   0.26287506 -0.85937751  1.73557171
O  -0.04480033 -0.63362629  2.84647558
C  -0.65194762 -1.68434652  0.86436545
C   0.09564345 -2.99244401  0.53170289
C  -1.88355589 -1.99226805  1.69501464
C  -0.82886757 -0.85152005 -0.40656165
C   0.34899197 -0.27358102 -0.97538077
C   1.58813939 -0.23879454 -0.26556483
C   2.73856034  0.07448896 -0.95914115
C   4.13643215 -0.02456312 -0.42012128
O   4.82193413 -1.01037141 -0.56747054
O   4.56783328  1.09444495  0.14853163
C   2.68967533  0.49503209 -2.30915342
C   1.49259061  0.62837656 -2.94484647
C   0.30032415  0.23179813 -2.29891677
C  -0.94048247  0.30841220 -2.97123621
C  -2.07103126 -0.16212696 -2.37790257
C  -2.01111514 -0.78691258 -1.10737045
C  -3.31057923 -1.43193073 -0.72400511
O  -3.61043376 -2.56016784 -1.04442427
O  -4.12991696 -0.60111748 -0.09447437
H   1.76668848  0.98630515  2.96425071
H   0.95322520  1.71019710  1.54940410
H   2.70705247  1.46392323  1.54792950
H   2.37197536 -1.52654816  2.90020895
H   3.60404731 -0.83769491  1.86768791
H   2.69470843 -2.25759789  1.30616694
H   0.36912957 -3.51960176  1.44715306
H   0.97897877 -2.83731416 -0.08513427
H  -0.60938301 -3.60490134 -0.03238358
H  -1.58418414 -2.48146296  2.62215780
H  -2.50697114 -2.70360149  1.15968280
H  -2.45730521 -1.09870251  1.93608069
H   5.48711565  0.98783254  0.43700840
H   3.61447680  0.74504137 -2.81729594
H   1.44267703  1.00748910 -3.95953354
H  -0.97467045  0.73169394 -3.96904881
H  -3.02342900 -0.11063755 -2.89382743
H  -4.97746605 -1.03881458  0.07757556
B  -1.72241077  2.58432964  0.71749236
F  -1.58930787  1.42968030  1.52167396
F  -2.85319816  2.45591134 -0.11140785
F  -1.87504685  3.71156451  1.55260252
F  -0.57046066  2.74380571 -0.07757814

