61
Total Energy                               R     -1.577698684595181E+03
C   0.05616453 -1.73784405 -1.41587451
C   0.36049595 -0.58272575 -2.37799484
C  -0.25171063 -3.02491102 -2.20560056
N   1.34712839 -2.02704258 -0.67285137
O   2.34695782 -2.03181131 -1.29088396
C   1.38310162 -2.37213352  0.79583848
C   0.75521988 -3.77979851  0.91198260
C   2.83121924 -2.40710518  1.24324012
C   0.49877183 -1.35712935  1.50208152
C  -0.74387244 -1.01453953  0.90871472
C  -1.03750795 -1.32986326 -0.44409407
C  -2.29311353 -1.09691345 -0.94048268
C  -3.28978243 -0.50067236 -0.13424601
C  -4.65080510 -0.23673850 -0.66308937
O  -5.51965936  0.35083300 -0.05070452
O  -4.84267260 -0.71446854 -1.89452809
C  -2.99566709 -0.10199378  1.14492226
C  -1.71764470 -0.34123677  1.69092430
C  -1.38598226  0.07895842  3.00295587
C  -0.14178489 -0.16940827  3.51018057
C   0.79974295 -0.91058429  2.76241675
H   1.14880396 -0.85316987 -3.07957427
H   0.64829252  0.30988073 -1.82483848
H  -0.54807953 -0.37286496 -2.94147231
H   0.60761038 -3.29564222 -2.82077466
H  -1.09123815 -2.81306808 -2.86739148
H  -0.51937054 -3.85656119 -1.55620398
H   1.29126706 -4.49349517  0.28402304
H  -0.30520815 -3.79135464  0.66510962
H   0.86467878 -4.07330927  1.95687517
H   3.39228877 -3.13838062  0.66147516
H   2.86195396 -2.72705780  2.28395263
H   3.30665436 -1.43109361  1.15309437
H  -2.52396581 -1.32170188 -1.97374532
H  -5.74768220 -0.52066260 -2.17582799
H  -3.74210119  0.40248408  1.74831098
H  -2.13261743  0.60576851  3.58776434
H   0.12332264  0.16655222  4.50608162
H   1.75046712 -1.15017671  3.22149173
N  -0.40278740  3.34879462 -0.05238468
C   0.14307526  2.69656549  1.17274836
C  -1.52084277  2.52475954 -0.59188912
C  -0.90585962  4.70795809  0.29172571
C   0.66887457  3.46341019 -1.08131536
H  -1.13921981  1.53200486 -0.82398273
H  -0.64521037  2.65709289  1.92180507
H   0.47792353  1.69404899  0.91622895
H   0.98029811  3.28910936  1.53838237
H   1.48053197  4.06415037 -0.67608474
H   1.02558024  2.46721900 -1.32748551
H   0.25138129  3.94238392 -1.96529128
H  -1.69141967  4.61155286  1.03913483
H  -0.08000467  5.29608877  0.68834742
H  -1.29998018  5.17353321 -0.60995055
H  -2.30358154  2.46505294  0.16156157
H  -1.90336847  3.00039923 -1.49361274
B   3.50606497  1.14866081 -0.58035959
F   3.78130278  2.38258029  0.04061705
F   4.58771854  0.26717805 -0.38664070
F   2.33963231  0.59144280 -0.00827227
F   3.29931523  1.34556533 -1.96002503

