61
Total Energy                               R     -1.577879660288242E+03
C   0.52792004  0.71253358 -0.12213639
C   0.26089555  2.13439650 -0.63078729
C  -0.13124598  0.51763251  1.25397931
N  -0.10528276 -0.21724656 -1.09589820
O  -1.31384725  0.04610294 -1.39943216
C   0.33158440 -1.61448292 -1.36130156
C  -0.40234982 -2.55673215 -0.39212409
C  -0.07001112 -1.93632253 -2.80614923
C   1.83221689 -1.75496558 -1.17320398
C   2.60224067 -0.75237266 -0.52391334
C   2.01974286  0.44430399 -0.01766019
C   2.80928374  1.35678320  0.63381978
C   4.19834110  1.14979758  0.79576918
C   5.05144828  2.14414239  1.49059480
O   6.24622692  2.01543739  1.67398748
O   4.38085407  3.22123796  1.90818313
C   4.78287350  0.01136716  0.30545936
C   4.00284436 -0.96340762 -0.35250199
C   4.60260434 -2.15604617 -0.82416353
C   3.83653879 -3.11327789 -1.42743479
C   2.45285730 -2.90818993 -1.59475828
H  -0.80990507  2.31258544 -0.71130280
H   0.72237198  2.29268459 -1.60840617
H   0.66580754  2.86787556  0.06593885
H  -1.21349869  0.62922087  1.17029699
H   0.24158339  1.27669406  1.94513592
H   0.09575367 -0.46407051  1.67207362
H  -1.47850091 -2.37778154 -0.43856228
H  -0.05879591 -2.41846571  0.63412056
H  -0.21159413 -3.59361311 -0.67697004
H  -1.14706498 -1.83314781 -2.93355566
H   0.19432362 -2.96452568 -3.05179405
H   0.43546065 -1.27029811 -3.50933990
H   2.37071754  2.25511113  1.04667706
H   4.99167562  3.82643335  2.35069127
H   5.84749597 -0.15762737  0.42483529
H   5.67002565 -2.29570177 -0.68717823
H   4.28361014 -4.03564357 -1.78153703
H   1.87402416 -3.69447461 -2.06505085
N  -3.83517928 -1.70617998  2.12742057
C  -2.50695779 -1.74077062  2.80234098
C  -3.84651533 -0.62499216  1.09988043
C  -4.09089695 -3.01959447  1.47143935
C  -4.89777470 -1.43956711  3.13726751
H  -3.66650790  0.32661086  1.59445211
H  -1.74443807 -1.95540915  2.05786516
H  -2.32199864 -0.77205201  3.26322653
H  -2.52288971 -2.52210476  3.56070768
H  -4.88377501 -2.23686110  3.87854004
H  -4.69553545 -0.48085263  3.61197051
H  -5.86145678 -1.41253922  2.63171791
H  -3.30711672 -3.20403994  0.73876141
H  -4.08327871 -3.79732918  2.23354936
H  -5.06227149 -2.98279993  0.98153643
H  -3.06505520 -0.82486451  0.36932432
H  -4.82159645 -0.61898436  0.61710235
B  -3.98720900  2.38778387 -1.28375452
F  -4.38899644  1.07785940 -1.61434507
F  -3.39054302  2.39606193 -0.00662345
F  -3.06093892  2.85149764 -2.24085150
F  -5.11707732  3.23540328 -1.27541489

