61
Total Energy                               R     -1.577994331461820E+03
C  -0.46049525 -0.28483229 -1.29114539
C  -0.32171949 -1.26527815 -2.46384195
C   0.46847248 -0.75906600 -0.15008735
N  -0.16944534  1.06821065 -1.83158521
O   1.13816436  1.10100460 -2.36832727
C  -0.35640530  2.22249495 -0.91536670
C   0.73527239  2.39895068  0.16367878
C  -0.34380851  3.47658305 -1.80875273
C  -1.71040193  2.12181727 -0.22394225
C  -2.43197663  0.89676879 -0.19851308
C  -1.88467559 -0.29759325 -0.75478824
C  -2.61847395 -1.45461843 -0.70319654
C  -3.90690879 -1.49048552 -0.11444466
C  -4.69858136 -2.74198532 -0.06812981
O  -5.80587026 -2.84116529  0.42596633
O  -4.08026956 -3.78687196 -0.62878788
C  -4.44116681 -0.35737804  0.44135727
C  -3.71429811  0.85383053  0.42330153
C  -4.24213982  2.01631783  1.03502187
C  -3.51234422  3.17278962  1.03954437
C  -2.25305808  3.21906238  0.40844515
H   0.69454499 -1.23925796 -2.85377496
H  -1.00880784 -1.00650323 -3.27479899
H  -0.52287694 -2.29265953 -2.15680171
H   1.50610742 -0.51264818 -0.37817813
H   0.39467579 -1.84382022 -0.03156473
H   0.20905027 -0.30994838  0.80853086
H   1.72685807  2.34030083 -0.28796526
H   0.66814193  1.65410108  0.95489315
H   0.63461124  3.38250760  0.63099702
H   0.60511282  3.54945922 -2.34119851
H  -0.46010236  4.39116296 -1.22462365
H  -1.15089847  3.43533526 -2.54558393
H  -2.21380788 -2.37391703 -1.10215375
H  -4.64881763 -4.56619095 -0.56214610
H  -5.42049367 -0.37913948  0.90718301
H  -5.21975716  1.96748781  1.50409205
H  -3.89960682  4.06532892  1.51966746
H  -1.70952915  4.15671442  0.42849240
N   4.76503455 -0.77693165 -1.22796807
C   3.90912659 -1.26457000 -2.34697051
C   6.19807227 -0.85708290 -1.62774973
C   4.41651111  0.63754056 -0.90888062
C   4.53392525 -1.63010137 -0.02713252
H   6.44010814 -1.89349788 -1.85706316
H   4.06775227 -0.62698496 -3.21490328
H   4.19044958 -2.29110114 -2.57654145
H   2.86849708 -1.21988536 -2.03451467
H   3.48320792 -1.57149382  0.24631589
H   4.80301917 -2.65585139 -0.27431201
H   5.15594589 -1.26392154  0.78754279
H   4.56951716  1.24396001 -1.80001499
H   3.37511452  0.68122896 -0.60038248
H   5.06365007  0.98082577 -0.10380036
H   6.35200686 -0.23242796 -2.50592728
H   6.81155033 -0.50176911 -0.80158279
B   2.44460700 -0.35458966  3.10130184
F   3.22831122 -0.36415189  4.27634044
F   1.13627623  0.06985382  3.41451738
F   3.01739705  0.52959539  2.16630285
F   2.39988915 -1.65708891  2.56164273

