59
Total Energy                               R     -1.341918999752543E+03
C  -1.57166585  1.06056603  1.20104900
C  -2.99629593  0.48530061  1.15710263
C  -1.62108418  2.50015446  1.75939399
N  -0.79487944  0.09593133  2.02790333
O  -1.36001058 -0.01213734  3.31867541
C   0.66370110  0.30827724  2.15224955
C   1.10305198  1.46426448  3.07884461
C   1.22280475 -1.00958963  2.72456620
C   1.26204467  0.53494214  0.77333241
C   0.44617090  0.86532683 -0.34630653
C  -0.95941912  1.10363220 -0.20333598
C  -1.67729520  1.38280291 -1.35077240
C  -3.14066703  1.68943332 -1.43741598
O  -3.95176786  0.94710416 -1.94871515
O  -3.44803334  2.91459472 -1.01588765
C  -1.07008935  1.40592857 -2.63439971
C   0.26728266  1.20865374 -2.77332641
C   1.05894232  0.95162656 -1.62954871
C   2.45117350  0.78208573 -1.76802002
C   3.22681584  0.54020525 -0.66427118
C   4.69253664  0.39800370 -0.84262209
O   5.26160399  0.45577661 -1.91532093
O   5.35257579  0.19896235  0.30144910
C   2.62011374  0.41123055  0.60282536
H  -3.32238836  0.27043488  2.17237216
H  -3.02908004 -0.44385245  0.58153851
H  -3.71843051  1.18684412  0.74342286
H  -1.79673006  2.47797661  2.83740295
H  -2.43272130  3.06222885  1.29442353
H  -0.69546691  3.04499443  1.56903786
H   0.56719386  1.41552609  4.02806876
H   0.93444414  2.44496116  2.63454543
H   2.17251894  1.38053840  3.29015120
H   0.75583498 -1.22113989  3.68668053
H   2.30110276 -0.96103607  2.88576751
H   1.01248873 -1.84209198  2.04751167
H  -4.39594983  3.07309167 -1.13844604
H  -1.68624738  1.60597540 -3.50454658
H   0.73929126  1.25069846 -3.74911759
H   2.89611997  0.85736167 -2.75401763
H   6.29828823  0.11501970  0.11584712
H   3.25092525  0.19587948  1.45459063
N  -1.04582870 -3.51666458 -0.49439646
C  -2.51728450 -3.38233586 -0.29957424
C  -0.44516158 -2.16039819 -0.64124142
C  -0.45100862 -4.19005176  0.69451909
C  -0.77208943 -4.32281129 -1.71593388
H  -0.88571429 -1.67536547 -1.51150520
H  -2.69667930 -2.80956721  0.60859136
H  -2.93968986 -2.86590375 -1.15984443
H  -2.94944286 -4.37758846 -0.20807880
H  -1.21381081 -5.31028728 -1.59247902
H  -1.21339997 -3.81777248 -2.57350286
H   0.30586575 -4.40663542 -1.84419849
H  -0.66312229 -3.58985749  1.57751926
H  -0.89617326 -5.17852447  0.79570617
H   0.62411543 -4.27533177  0.54595510
H  -0.65907222 -1.59137046  0.26320225
H   0.63047922 -2.26796326 -0.77543827

