59
Total Energy                               R     -1.341797990143570E+03
C   0.53289690  1.27571308 -0.10085656
C   1.44569147  2.41351408  0.34038630
C   0.77739792  1.00199362 -1.59894915
N   0.89261843  0.07951017  0.71584767
O   2.03233663  0.04033610  1.27979463
C   0.17449595 -1.21062741  0.60517941
C   0.92466120 -2.12564148 -0.37548802
C   0.17446501 -1.85264942  2.00189231
C  -1.26770955 -0.96002299  0.19467874
C  -1.80622789  0.35543166  0.09948792
C  -0.96568094  1.51615542  0.08406163
C  -1.56936009  2.75354095  0.06974513
C  -0.87018401  4.07914637  0.06191170
O  -0.65664257  4.73510222  1.05592488
O  -0.61219376  4.51234553 -1.17095715
C  -2.98272526  2.89354416  0.04289077
C  -3.78563972  1.79847904 -0.02873654
C  -3.21504339  0.50252892 -0.01901133
C  -4.03812077 -0.63548112 -0.14296823
C  -3.48479141 -1.88983544 -0.14913533
C  -4.37846506 -3.06274948 -0.32127846
O  -5.58586732 -2.99204165 -0.43444707
O  -3.72624426 -4.22723011 -0.34665588
C  -2.09502953 -2.04423309  0.04061845
H   2.48423461  2.10487292  0.23191099
H   1.27603136  2.70377074  1.37793069
H   1.31393933  3.27619345 -0.30872831
H   1.81723207  0.71858820 -1.77206958
H   0.57163408  1.91821319 -2.15672483
H   0.12629090  0.22026065 -1.99145695
H   1.95903271 -2.24032490 -0.04809872
H   0.91807183 -1.73333421 -1.39242055
H   0.46670569 -3.11608315 -0.38566133
H   1.19484680 -2.04179392  2.33621097
H  -0.35458219 -2.80561616  1.96611962
H  -0.32431377 -1.20661536  2.72831636
H  -0.20924599  5.39307166 -1.13254181
H  -3.41231317  3.88969357  0.04355708
H  -4.86291625  1.90287784 -0.09879042
H  -5.10917390 -0.50216349 -0.24585942
H  -4.36074562 -4.94763028 -0.46629231
H  -1.68821869 -3.04524378  0.10346152
N   5.32473281 -1.08148230 -0.27348683
C   4.83569694 -2.20404857  0.57687981
C   4.22199310 -0.61447664 -1.16103409
C   5.76266437  0.04631090  0.59706332
C   6.47206775 -1.54779065 -1.10102098
H   3.90147331 -1.44260730 -1.79077559
H   4.00417690 -1.84717154  1.18185405
H   4.51086254 -3.01646541 -0.07070882
H   5.65109704 -2.53746114  1.21662451
H   7.26910525 -1.88107602 -0.43861007
H   6.13631481 -2.37067126 -1.72981203
H   6.81759660 -0.72016371 -1.71797645
H   4.91271895  0.38059083  1.18966511
H   6.56209820 -0.30470635  1.24742970
H   6.12103381  0.85632193 -0.03582931
H   3.40333934 -0.27739951 -0.52983595
H   4.59294534  0.20500733 -1.77462842

