38
Total Energy                               R     -8.057687400831867E+02
C   0.73698698  2.65161853  0.06660495
C   2.80518961  0.69209577  1.25229504
C   2.88244403  1.04975942 -1.23581185
N   1.81397459 -0.92277127 -0.31721344
O   2.87258194 -1.60825949 -0.50440986
C   0.60590294 -1.68814586  0.09820765
C   2.03328744  0.52793415 -0.06766542
C   0.77241150 -2.11527392  1.56778075
C  -0.63594973 -0.82082587 -0.03268743
C  -0.53614736  0.60094214 -0.02978205
C   0.71270200  1.27702875 -0.00781342
C  -0.45366157  3.40322457  0.08500485
C  -1.66847702  2.77684770  0.02534469
N  -4.28971145 -1.33466921 -0.04021731
C  -2.99638400  0.71057803 -0.06198331
C  -1.74299418  1.36246081 -0.02658742
C  -3.07218916 -0.66145720 -0.07409846
C  -1.87034955 -1.41511455 -0.04790033
C   0.53009539 -2.92856154 -0.79660451
H   3.08706373  1.73866931  1.38287728
H   2.20148398  0.39268051  2.11036881
H   1.68257949  3.18028664  0.10634008
H   3.82767606  0.50990721 -1.29255199
H   3.10910277  2.10627028 -1.09298511
H   2.35149805  0.93515759 -2.18394065
H   3.71706575  0.09174343  1.23196098
H   0.40458449 -2.64995105 -1.84550364
H   1.43423626 -3.52681546 -0.69595155
H   1.71998064 -2.64252718  1.70233387
H  -0.04271662 -2.78832465  1.84246191
H   0.74484778 -1.25637833  2.24053445
H  -0.39769668  4.48559280  0.13846104
H  -2.59017097  3.35071163  0.02685829
H  -3.90270689  1.30974516 -0.06835839
H  -5.07386281 -0.79667663 -0.38089702
H  -4.26963686 -2.25828443 -0.44896700
H  -1.96184601 -2.49528463 -0.01999851
H  -0.30918362 -3.55702839 -0.50157111

