38
Total Energy                               R     -8.058817548849709E+02
C   0.69222267  2.66503437  0.01912905
C   2.62805435  0.59651943  1.36428416
C   2.98403853  1.17838923 -1.03232709
N   1.77207590 -0.85809440 -0.56688759
O   2.97692057 -1.59883953 -0.51112225
C   0.66608825 -1.64163574  0.03845792
C   2.00519304  0.51381345 -0.04851460
C   0.86325622 -2.05186298  1.51682189
C  -0.61829002 -0.82609919 -0.04773609
C  -0.55203844  0.59982444 -0.05249512
C   0.69257213  1.28777914 -0.04012816
C  -0.51012851  3.39959639  0.03432183
C  -1.71800692  2.75686565 -0.00679998
N  -4.26655553 -1.40587358  0.01626789
C  -3.01400267  0.66516160 -0.05308850
C  -1.77085965  1.34073609 -0.04215741
C  -3.06062034 -0.70780883 -0.04648797
C  -1.84443913 -1.43969391 -0.03656374
C   0.54329474 -2.92590454 -0.79453496
H   2.99993334  1.60925560  1.54343784
H   1.91113315  0.37127016  2.15355614
H   1.62699745  3.21209645  0.05509258
H   3.91954498  0.61969956 -1.06541012
H   3.22464385  2.20038095 -0.73583731
H   2.56246047  1.20421597 -2.04130278
H   3.47099118 -0.09200240  1.45273956
H   0.34439544 -2.69353560 -1.84476283
H   1.47112235 -3.49425276 -0.73758490
H   1.87166340 -2.43891105  1.68050099
H   0.15265517 -2.84100497  1.77873904
H   0.69237623 -1.22320124  2.20457302
H  -0.46961452  4.48376280  0.07449363
H  -2.64749572  3.31867839 -0.00222211
H  -3.93255994  1.24613237 -0.05446520
H  -5.06356750 -0.88597906 -0.32332317
H  -4.23260399 -2.32912310 -0.39284180
H  -1.91839461 -2.52133599 -0.00710907
H  -0.25569350 -3.57194169 -0.42804504

