38
Total Energy                               R     -8.055790564798044E+02
C   2.01999254  0.48148826 -0.25126252
C   0.80813156  2.59625123  0.24721344
C   2.52781245  0.88802842 -1.64098718
N   1.75253931 -1.00770001 -0.31663063
O   2.51641307 -1.67940247 -0.90956259
C   0.58102793 -1.66019917  0.37684027
C   3.14152327  0.64636016  0.79334048
C   0.85232268 -1.54740036  1.89201846
C  -0.63780570 -0.82730350  0.00747947
C  -0.51689677  0.58850313  0.03583497
C   0.74427656  1.23417153  0.08006813
C  -0.37324749  3.36272507  0.32674438
C  -1.59985101  2.77024707  0.19265833
N  -4.24890362 -1.28353168 -0.49333207
C  -2.95797565  0.72653256 -0.11228016
C  -1.70578207  1.36474577  0.03473484
C  -3.04383474 -0.64080768 -0.25129300
C  -1.85739348 -1.41949141 -0.16146675
C   0.53504859 -3.11553972 -0.04525855
H   3.45680487  1.68931328  0.76851807
H   2.80970052  0.40461256  1.80135456
H   1.76557907  3.10469969  0.27411552
H   3.44804497  0.36254847 -1.89395120
H   2.73567879  1.95691798 -1.61772518
H   1.76950714  0.69552592 -2.40224235
H   3.99511683  0.02280854  0.52376309
H   0.35195410 -3.22356469 -1.11559212
H   1.46656661 -3.61863331  0.21394136
H   1.81398578 -1.99584368  2.14727621
H   0.05780529 -2.10997329  2.38420437
H   0.81265843 -0.52015727  2.25120195
H  -0.29753548  4.43637163  0.46022265
H  -2.50688796  3.36612890  0.20816622
H  -3.85996206  1.33155260 -0.11888122
H  -5.06998860 -0.76504254 -0.21563120
H  -4.28861571 -2.24540487 -0.18769611
H  -1.95548503 -2.49865948 -0.18474983
H  -0.26577393 -3.60922700  0.50363709

