58
Total Energy                               R     -1.612842691593695E+03
C   0.72501742 -2.15099073 -1.37558409
C   1.69323943 -1.41059508 -2.29361756
C   0.59053266 -3.61614984 -1.80440954
N   1.17592168 -2.06871064  0.03309129
O   2.29317528 -2.53657163  0.40071146
C   0.10198351 -1.75585897  1.01780103
C   0.61496054 -0.73454137  2.02871146
C  -0.30676032 -3.05681881  1.72040780
C  -0.96489900 -1.23282592  0.07190021
C  -0.61134250 -1.47038650 -1.25583689
C  -1.41688007 -1.06619297 -2.30502058
C  -2.59286663 -0.39146414 -2.01966417
C  -2.96167429 -0.13534047 -0.70116379
C  -4.24804568  0.58433386 -0.49443816
O  -4.71552343  1.37400252 -1.28687489
O  -4.86123673  0.24854162  0.63981313
C  -2.14680370 -0.55688814  0.36182596
C  -2.49045243 -0.17043200  1.77181155
O  -2.40978013  0.96187267  2.18854055
O  -2.86736386 -1.20269224  2.51607483
H   2.68716370 -1.85904205 -2.23426785
H   1.76255076 -0.35361752 -2.03498014
H   1.34646683 -1.49159634 -3.32608016
H   1.56645978 -4.10630330 -1.77033067
H   0.21765226 -3.66009933 -2.83021278
H  -0.10241618 -4.15986360 -1.15978988
H   1.53565771 -1.10407113  2.48448998
H  -0.11028061 -0.59693270  2.83248997
H   0.80670713  0.23236371  1.56334935
H   0.56137847 -3.48084370  2.23081021
H  -0.69031078 -3.79019764  1.00884639
H  -1.07914857 -2.85402461  2.46155285
H  -1.12881592 -1.25726979 -3.33281248
H  -3.24033456 -0.06076274 -2.82300072
H  -5.67187602  0.76678146  0.74234039
H  -3.04576487 -0.90416758  3.42037385
N   4.40442060  0.85693187  0.33503097
C   4.86757322 -0.21561211 -0.59057947
C   4.34878024  0.32014598  1.72418834
C   5.34734455  2.00860178  0.28042037
C   3.04543515  1.31113827 -0.07549118
H   3.67571375 -0.53489195  1.73991643
H   5.87043273 -0.52178434 -0.29728278
H   4.18097354 -1.05708334 -0.51671887
H   4.87549255  0.17767438 -1.60563400
H   3.10038411  1.70009264 -1.09006331
H   2.37202402  0.46032770 -0.03427616
H   2.71471417  2.08777058  0.61023517
H   6.33584965  1.66914809  0.58507689
H   5.37810621  2.38647461 -0.74000581
H   4.99125713  2.78383924  0.95670849
H   5.35075960  0.01368459  2.02035520
H   3.98273075  1.10205235  2.38740417
B  -0.20599510  2.88904090 -0.38623053
F   0.45148480  4.07773323 -0.77546170
F  -1.60039133  3.06161505 -0.50763971
F   0.21211884  1.83341548 -1.21845718
F   0.11890217  2.59697275  0.95401579

