58
Total Energy                               R     -1.612650967497720E+03
C  -0.57959944 -1.63980320  1.98218049
C  -1.45691484 -0.63335952  2.71711563
C  -0.45634746 -2.96386393  2.75031634
N  -1.20880052 -1.96828475  0.65825398
O  -2.32632958 -2.29712677  0.54772136
C  -0.25965744 -1.88803112 -0.51926130
C  -0.92369590 -1.05601320 -1.61169108
C  -0.04133555 -3.34758948 -0.94967680
C   0.93654502 -1.24599514  0.14961813
C   0.74256896 -1.10275400  1.51966780
C   1.68261123 -0.49477881  2.33095854
C   2.83708334 -0.00149599  1.74716135
C   3.04889497 -0.12985338  0.37714958
C   4.31300755  0.44668741 -0.16499527
O   4.84186875  1.43834797  0.28621039
O   4.81607583 -0.25730912 -1.17535246
C   2.09901570 -0.75660479 -0.44075454
C   2.26830671 -0.72574586 -1.93403817
O   2.20549828  0.29793326 -2.57415876
O   2.46489414 -1.92348448 -2.46289299
H  -2.43442215 -1.06649325  2.93132884
H  -1.57730891  0.28476117  2.14304272
H  -0.96307824 -0.39910379  3.66141749
H  -1.44822948 -3.36801967  2.95781585
H   0.04566282 -2.74010143  3.69283261
H   0.13622768 -3.69441191  2.19820458
H  -1.89425950 -1.48135434 -1.86793393
H  -0.29692454 -1.09407488 -2.50319342
H  -1.04393744 -0.01831126 -1.30165496
H  -0.99240801 -3.78290538 -1.26037380
H   0.39283652 -3.93938895 -0.14312890
H   0.64447405 -3.34170235 -1.79489583
H   1.51081773 -0.38844848  3.39575070
H   3.58726061  0.48836701  2.35586035
H   5.61468525  0.17243927 -1.51445188
H   2.53984765 -1.85141851 -3.42648243
N  -0.06243087  3.21207164  0.42592891
C   0.33191311  2.85574203  1.81785893
C   0.80263334  2.47391716 -0.53653453
C  -1.48213237  2.82114776  0.19515514
C   0.09568063  4.67901640  0.22257857
H   1.84396945  2.73051620 -0.34821250
H   0.19454967  1.78566798  1.95573701
H   1.37736828  3.12235202  1.96460181
H  -0.29968086  3.40708199  2.51258111
H  -0.54604200  5.20097580  0.93050485
H   1.13761195  4.94572642  0.39128884
H  -0.19368767  4.92342416 -0.79810790
H  -1.57298312  1.74530949  0.32274318
H  -2.11207456  3.33973737  0.91604051
H  -1.76015446  3.10103812 -0.81878771
H   0.64044263  1.41054707 -0.38574074
H   0.51921814  2.75570317 -1.54890743
B  -4.24113499  0.42069137 -0.90665420
F  -3.45102374  0.23279077  0.24788980
F  -4.59834649 -0.83603447 -1.43740196
F  -5.40636660  1.13621438 -0.56019448
F  -3.51237555  1.14830719 -1.86840020

