43
Total Energy                               R     -1.379373854233025E+03
C  -1.29872340  1.66125100 -1.02705845
C  -1.59744579  1.02144114 -2.38915492
C  -1.64745990  3.16670294 -1.07178005
N  -2.26576495  1.05562114 -0.03534581
O  -3.36290019  0.83686009 -0.39896160
C  -1.90310743  0.80235034  1.40717741
C  -1.78662730  2.19501496  2.07003157
C  -3.03479740  0.01471494  2.04262805
C  -0.54724804  0.11360717  1.41172845
C   0.44939022  0.52876155  0.48614413
C   0.13362427  1.38397120 -0.60395475
C   1.13420806  1.89180755 -1.39410469
C   2.47028946  1.52546607 -1.18163872
C   2.76527777  0.60939091 -0.21356742
N   4.16727344  0.18631435 -0.12685803
O   5.02175498  1.05055546 -0.19282090
O   4.40526170 -1.00299054 -0.02288914
C   1.78773973  0.07130191  0.66357550
C   2.07329297 -0.83568704  1.71477353
C   1.07510532 -1.26403519  2.54232846
C  -0.24061601 -0.78227340  2.39943368
H  -2.61782576  1.23572693 -2.70547567
H  -1.43545296 -0.05477521 -2.35845349
H  -0.91838431  1.45921659 -3.11944175
H  -2.71112005  3.29887722 -1.27694092
H  -1.08806843  3.60326866 -1.89923256
H  -1.37975697  3.68752966 -0.15510128
H  -2.69498664  2.77960465  1.91168613
H  -0.91803888  2.75463123  1.72751182
H  -1.66937879  2.00818325  3.13853960
H  -3.97452994  0.56227598  1.96988946
H  -2.81794431 -0.10789244  3.10248675
H  -3.14987162 -0.96847262  1.58570527
H   0.91006984  2.55177794 -2.22300925
H   3.24950529  1.92535216 -1.81838342
H   3.08232362 -1.19303710  1.86737527
H   1.29705987 -1.96475274  3.33919127
H  -0.99103204 -1.11404436  3.10461605
B  -1.04319552 -2.65659582 -1.00572479
F   0.07108962 -2.03251846 -1.59768387
F  -1.65255526 -3.51800411 -1.94174945
F  -0.63389007 -3.39506766  0.12044182
F  -1.98214393 -1.67353815 -0.60866519

