55
Total Energy                               R     -1.169160668618414E+03
C   0.40473345  1.86864672  1.16059880
C   1.03395407  1.16944320  2.37672572
C   0.16913044  3.35330876  1.48444975
N   1.38322908  1.76364257  0.04856663
O   2.54408493  2.21987396  0.28984494
C   0.96889253  1.62505149 -1.37348111
C   0.38117033  2.95965489 -1.87374901
C   2.21007127  1.28599549 -2.19539534
C  -0.10319966  0.55064204 -1.45928603
C  -1.04424992  0.41495188 -0.39603603
C  -0.88777186  1.14599490  0.81582951
C  -1.89054886  1.12510984  1.75741247
C  -3.03469165  0.33853511  1.58006672
C  -3.13404244 -0.45896273  0.47474941
N  -4.29848336 -1.34419530  0.42003954
O  -5.37481906 -0.88691135  0.76123043
O  -4.13312680 -2.49946496  0.06811589
C  -2.16577080 -0.45469862 -0.56436380
C  -2.28810329 -1.20395089 -1.76156458
C  -1.34173419 -1.08742965 -2.73977345
C  -0.25489711 -0.20385339 -2.59377411
H   2.01525064  1.59531354  2.58648606
H   1.13873658  0.09779919  2.19656911
H   0.40272333  1.30718910  3.25559893
H   1.13028901  3.84019271  1.65978825
H  -0.42990793  3.45172903  2.39121145
H  -0.34683254  3.87130185  0.67550072
H   1.09216841  3.77165860 -1.69991879
H  -0.56122951  3.20202074 -1.37944844
H   0.18839672  2.88827074 -2.94674892
H   2.97900433  2.03967520 -2.03584224
H   1.96586035  1.28323061 -3.25774181
H   2.61682895  0.30971730 -1.92709646
H  -1.79704114  1.68770890  2.67844861
H  -3.80661383  0.32162962  2.33973218
H  -3.13225903 -1.86342089 -1.90946964
H  -1.43840337 -1.66268901 -3.65429464
H   0.44577022 -0.11383916 -3.41387333
N   3.24386551 -2.19145545  0.55979268
C   4.08879883 -0.98196288  0.34243149
C   1.90617205 -1.97730042 -0.06445891
C   3.89868570 -3.37646413 -0.06374780
C   3.08404577 -2.42715760  2.02346996
H   1.45474963 -1.09357683  0.38039460
H   4.23733787 -0.84865259 -0.72717524
H   3.57777489 -0.11558960  0.75994698
H   5.04686718 -1.13344445  0.83708404
H   4.06770805 -2.59872920  2.45736029
H   2.62558454 -1.54859185  2.47287100
H   2.45069559 -3.30022196  2.16999794
H   4.00523773 -3.19361459 -1.13169552
H   4.87647588 -3.51624303  0.39402105
H   3.27375557 -4.25130696  0.10805688
H   2.04057308 -1.83111435 -1.13419467
H   1.28723978 -2.85365053  0.12148763

