55
Total Energy                               R     -1.169263550379958E+03
C   0.36940200 -1.02055421  1.12733039
C   1.04253668 -2.27003329  0.53100292
C   0.31651844 -1.19177490  2.66247440
N   1.18256043  0.12322916  0.66093211
O   2.45942125  0.05879422  1.22556878
C   0.61515868  1.47853354  0.83397908
C   0.54258942  1.96499231  2.29907477
C   1.55634810  2.42031171  0.06631196
C  -0.78209668  1.52610894  0.23363416
C  -1.56920394  0.33908786  0.14082173
C  -1.05117512 -0.90791896  0.59957159
C  -1.86925916 -2.01667746  0.60432591
C  -3.18112949 -1.96044247  0.12194477
C  -3.66290173 -0.78420338 -0.38280491
N  -5.01149775 -0.82762112 -0.94364730
O  -5.84943821 -1.49789200 -0.36313076
O  -5.23418283 -0.22238389 -1.97931717
C  -2.90331120  0.41827540 -0.37452491
C  -3.42279060  1.67583122 -0.76765833
C  -2.65057894  2.79806462 -0.65071090
C  -1.33662292  2.72257206 -0.15509540
H   2.07530670 -2.30470371  0.87482488
H   1.04262067 -2.22491814 -0.56216475
H   0.54998580 -3.19373458  0.84054412
H   1.32137043 -1.02428035  3.05563423
H  -0.00367536 -2.20416340  2.92550435
H  -0.37284927 -0.49451833  3.14030394
H   1.46630384  1.67644439  2.80619368
H  -0.30621905  1.54160311  2.83865616
H   0.44372474  3.05413115  2.33732202
H   2.55504740  2.33767955  0.49183101
H   1.24428232  3.46392389  0.13688847
H   1.60696820  2.14281681 -0.99104382
H  -1.50739568 -2.96649073  0.97687934
H  -3.79888124 -2.85033072  0.11814349
H  -4.43171149  1.75719763 -1.14779517
H  -3.05613249  3.76250019 -0.93923815
H  -0.76924375  3.64125276 -0.07014914
N   4.79224779 -0.44518900 -1.10734073
C   3.45123454 -0.39835096 -1.76251077
C   5.85052953 -0.67434379 -2.12452293
C   5.02533566  0.84796253 -0.40082930
C   4.79830246 -1.54539578 -0.09970194
H   5.65602013 -1.62076864 -2.62752062
H   3.45430747  0.41104365 -2.49241660
H   3.28066383 -1.34993246 -2.26566947
H   2.70514825 -0.22443909 -0.98498777
H   4.00682153 -1.31498783  0.61798074
H   4.60645540 -2.48736774 -0.61292385
H   5.77759404 -1.57211942  0.37759826
H   4.99413657  1.65466525 -1.13284165
H   4.22419529  0.94906472  0.33543552
H   6.00501287  0.81230921  0.07488865
H   5.82956358  0.14288483 -2.84428675
H   6.81768963 -0.70811170 -1.62484031

