53
Total Energy                               R     -1.310923740697273E+03
C  -0.14537489  0.69422972 -1.10395642
C  -1.48144588  0.95066866 -1.79650211
C   0.84856629  0.02598003 -2.05688669
N  -0.35154505 -0.16219404  0.09095052
O  -0.80740131 -1.33784788 -0.00255081
C   0.23965968  0.35464343  1.35116909
C  -0.81254705  0.36229402  2.45732768
C   1.44425995 -0.50395397  1.74299092
C   0.64338364  1.73691318  0.90542654
C   0.43145994  1.92593985 -0.45303996
C   0.74508351  3.12806543 -1.07180500
C   1.28263695  4.15335791 -0.29562155
O   1.61514261  5.36205325 -0.82336007
C   1.49941485  3.97266146  1.07213543
C   1.17992441  2.76212019  1.67386776
H  -1.91666626  0.00743546 -2.13597609
H  -1.33167569  1.59052372 -2.66979025
H  -2.18628857  1.44404690 -1.12268641
H   0.44679566 -0.92472409 -2.41577401
H   1.80190935 -0.16223892 -1.55869282
H   1.02799655  0.67347480 -2.91911154
H  -1.16151991 -0.65344297  2.65832516
H  -1.66927106  0.98282077  2.18293801
H  -0.37741308  0.76156761  3.37716798
H   1.13030479 -1.53043361  1.94669164
H   1.90989170 -0.09935043  2.64565743
H   2.18839166 -0.51575880  0.94463668
H   0.57766521  3.27186983 -2.13637751
H   1.43691045  5.37428137 -1.77037105
H   1.91940976  4.78773517  1.65197239
H   1.35231504  2.62715610  2.73738222
N  -4.75107121 -1.23189410 -0.03733491
C  -5.95740211 -1.80451608  0.62486881
C  -3.92477193 -2.33273500 -0.61224820
C  -5.17334576 -0.30804330 -1.12836425
C  -3.94356768 -0.47891493  0.96518801
H  -3.64404118 -3.01241860  0.19026443
H  -6.53188880 -2.35901845 -0.11536220
H  -5.63366192 -2.46806223  1.42497267
H  -6.55369031 -0.98887339  1.03049947
H  -4.55850223  0.31819591  1.38013834
H  -3.63430138 -1.16585590  1.75050607
H  -3.07053140 -0.06541754  0.46749140
H  -5.77203350 -0.86628311 -1.84627236
H  -5.76139556  0.49912685 -0.69476139
H  -4.28365520  0.09171074 -1.61095380
H  -4.51718646 -2.85661486 -1.36069738
H  -3.03124291 -1.90176393 -1.05948728
B   3.89648019 -2.75790753 -0.20403766
F   3.92373947 -2.93478288  1.19554032
F   4.77665688 -3.68176926 -0.80921409
F   2.58882266 -2.97529692 -0.68384912
F   4.30653143 -1.44564432 -0.52108422

