53
Total Energy                               R     -1.311019402614237E+03
C   1.12016199  0.58648128  0.23859588
C   0.57635333  1.73476302  1.09001498
C   0.36330586  0.57295247 -1.10252074
N   1.04049307 -0.67498233  1.02293510
O  -0.20696206 -1.28772938  0.96540641
C   2.16742549 -1.56778927  0.64017128
C   2.59892373 -2.38217424  1.86172930
C   1.85891137 -2.54575659 -0.50758975
C   3.20491822 -0.55425315  0.22117587
C   2.60689152  0.68053574 -0.00251025
C   3.35194987  1.77557117 -0.41842842
C   4.72470080  1.61463381 -0.61256152
O   5.52255047  2.64398876 -1.01945341
C   5.33454296  0.38028045 -0.39143896
C   4.57106454 -0.70736521  0.02763599
H  -0.46709807  1.53558515  1.34995418
H   0.61277149  2.68931394  0.55431805
H   1.14836163  1.83595267  2.01718005
H  -0.69523218  0.37876485 -0.92927828
H   0.74222486 -0.18902745 -1.78630732
H   0.46175359  1.54475151 -1.59750665
H   1.77092022 -3.01279402  2.20033185
H   2.88744351 -1.72324747  2.68603881
H   3.44648011 -3.03652556  1.63062383
H   1.03523447 -3.20448653 -0.22393513
H   2.73933978 -3.16126878 -0.72148388
H   1.58051954 -2.03162510 -1.42927526
H   2.88421588  2.74259475 -0.59121272
H   4.99699521  3.44265115 -1.13774880
H   6.40421611  0.28353718 -0.54760991
H   5.05506439 -1.66490568  0.20006043
N  -2.86700879 -2.43361075 -0.53790282
C  -4.08877320 -2.97143672 -1.19021442
C  -1.73143282 -2.40889077 -1.50617919
C  -3.11527729 -1.04253874 -0.05290717
C  -2.48732011 -3.28883550  0.62448906
H  -1.54553730 -3.42705160 -1.84785913
H  -4.34718118 -2.33222072 -2.03326843
H  -3.88668204 -3.98406903 -1.53692303
H  -4.90144881 -2.97924792 -0.46476458
H  -3.31038307 -3.28693462  1.33856027
H  -2.30949721 -4.30223772  0.26528433
H  -1.58165736 -2.86343876  1.06307472
H  -3.36637807 -0.41972812 -0.90968751
H  -3.94839795 -1.06589678  0.64836507
H  -2.19635916 -0.70143127  0.42954969
H  -2.00819498 -1.77621843 -2.34912523
H  -0.87294646 -2.00397207 -0.96313221
B  -3.81268546  2.54370217  0.20076593
F  -4.91902983  1.92460498 -0.42129636
F  -2.69963882  2.49508646 -0.66286928
F  -4.12892763  3.89114890  0.48151183
F  -3.51265865  1.87223472  1.40291220

