53
Total Energy                               R     -1.310740848871511E+03
C  -0.44597100 -0.65746594 -1.26731974
C  -1.50166722 -0.16252185 -2.24843201
C   0.58739492 -1.57284484 -1.94274931
N  -1.11363816 -1.49402555 -0.19972824
O  -1.83185208 -2.38645285 -0.44855864
C  -0.73015076 -1.11564358  1.21275178
C  -1.99504408 -0.93592863  2.04478167
C   0.14218095 -2.26700716  1.73435695
C   0.03798528  0.14680276  0.94302848
C   0.18505116  0.40373642 -0.41012781
C   0.87682286  1.51392119 -0.86670764
C   1.43300221  2.37387214  0.07799125
O   2.13412181  3.47760698 -0.27799631
C   1.29166492  2.12119597  1.44569133
C   0.59091132  1.00735651  1.88195474
H  -1.99112302 -0.99966621 -2.74827975
H  -0.98704889  0.43650181 -3.00198569
H  -2.24346044  0.45851005 -1.74841782
H   0.08954131 -2.39196892 -2.46488348
H   1.30111754 -1.97111123 -1.22007173
H   1.12502965 -0.96474031 -2.67209212
H  -2.57561469 -1.85894801  2.08129000
H  -2.60742575 -0.12400945  1.65700752
H  -1.68043729 -0.68629660  3.05988236
H  -0.45252689 -3.17373220  1.86017452
H   0.53090802 -1.95960061  2.70669728
H   0.98214805 -2.46611230  1.06703831
H   0.98726733  1.70888217 -1.92950796
H   2.16609811  3.56400076 -1.23783823
H   1.73616463  2.80869712  2.15666796
H   0.48350741  0.81384867  2.94402062
N   4.63094584 -0.41383096 -0.10637992
C   3.50685018 -1.07983283  0.61123597
C   4.22540273 -0.14431276 -1.51563317
C   4.95982015  0.87307997  0.57067067
C   5.82689431 -1.30329669 -0.09193115
H   3.98552471 -1.09078035 -1.99726387
H   2.63841314 -0.42591391  0.57538266
H   3.29056902 -2.02474956  0.11576321
H   3.80447470 -1.25455656  1.64385157
H   6.10447633 -1.49673055  0.94280967
H   5.57475655 -2.23516166 -0.59506465
H   6.64103281 -0.80276471 -0.61331298
H   4.07671544  1.50889413  0.55774391
H   5.25482925  0.66119982  1.59705425
H   5.77739846  1.35142064  0.03410026
H   3.35279777  0.50686029 -1.50690350
H   5.05333601  0.34070201 -2.02998645
B  -4.71903650  0.51622873 -0.10662628
F  -3.63457577  1.41700571 -0.01400093
F  -5.39235647  0.46724419  1.13106864
F  -5.60519181  0.95219857 -1.11204552
F  -4.23559662 -0.76919511 -0.42979106

