59
Total Energy                               R     -1.341791376608806E+03
C   0.55970323  1.00593988 -0.14932273
C   1.34683136  2.22920889  0.30540497
C   0.80034658  0.80269738 -1.65948151
N   1.06954245 -0.15768236  0.62891790
O   2.19536219 -0.07164773  1.21442724
C   0.51392974 -1.51664454  0.46577568
C   1.38102650 -2.29931008 -0.53340048
C   0.57206813 -2.20535980  1.83973357
C  -0.94579614 -1.42576841  0.05368186
C  -1.65659621 -0.18947300  0.04977588
C  -0.95355268  1.06224651  0.07152064
C  -1.68736421  2.22473960  0.11815820
C  -1.14792454  3.62283858  0.14054795
O  -0.99504009  4.27230217  1.15001172
O  -0.96260165  4.11793286 -1.08249923
C  -3.10370279  2.19420636  0.11546291
C  -3.78199536  1.01939895  0.01818171
C  -3.08089669 -0.21163144 -0.02532480
C  -3.74550244 -1.46023241 -0.20772054
C  -5.22491956 -1.61739363 -0.25565559
O  -5.79573482 -2.35340602 -1.03476743
O  -5.87612081 -0.92200712  0.67735632
C  -3.01343761 -2.61259920 -0.34894289
C  -1.62243924 -2.59639763 -0.18924250
H   2.41080189  2.04051862  0.16732922
H   1.17076530  2.47186503  1.35393208
H   1.10495198  3.08800429 -0.31645383
H   1.86214720  0.65242522 -1.86261571
H   0.47210980  1.70186448 -2.18539347
H   0.23885035 -0.04116684 -2.06157272
H   2.41818700 -2.28957970 -0.19444227
H   1.33569341 -1.87806039 -1.53763251
H   1.05737832 -3.34005843 -0.58059245
H   1.60363547 -2.28241699  2.18413343
H   0.16168757 -3.21263459  1.76029928
H  -0.00985144 -1.65040431  2.57942096
H  -0.66386166  5.03787115 -1.02231631
H  -3.65078989  3.13032125  0.14973479
H  -4.86120270  1.03506499 -0.04159988
H  -6.82809373 -1.07546942  0.59016601
H  -3.51786355 -3.55661225 -0.52047934
H  -1.09313323 -3.54141310 -0.20779742
N   5.57172384 -0.55229782 -0.20855295
C   5.64443131  0.62900204  0.69830326
C   4.49323988 -0.33074702 -1.21370146
C   6.87702114 -0.72916678 -0.90437158
C   5.26403506 -1.77263221  0.59072039
H   3.55696557 -0.20486096 -0.67719268
H   5.86951324  1.51209454  0.10278413
H   4.68369994  0.74590955  1.19630169
H   6.43155696  0.45989234  1.43093344
H   6.06598578 -1.92791256  1.31067478
H   4.31840872 -1.62209127  1.10812477
H   5.19492664 -2.62459486 -0.08348257
H   7.08948790  0.16879463 -1.48201648
H   7.65348788 -0.88797206 -0.15793595
H   6.80704703 -1.59215455 -1.56415195
H   4.72851439  0.56584471 -1.78525288
H   4.44198346 -1.19603086 -1.87233916

