59
Total Energy                               R     -1.341915681460088E+03
C   2.30682835 -0.13796448 -0.49442706
C   3.17691223  0.31364922  0.69199484
C   3.09764394  0.03604008 -1.81107771
N   1.94435992 -1.54396187 -0.17666936
O   3.10644291 -2.33585503 -0.07172102
C   0.97146201 -2.21564713 -1.05822377
C   1.48231469 -2.60530952 -2.46381893
C   0.56424054 -3.50662242 -0.31975902
C  -0.25247391 -1.33150046 -1.20679063
C  -0.21637438  0.05765278 -0.88479478
C   1.02446366  0.69875326 -0.55543417
C   0.99934965  2.05892053 -0.30766943
C   2.16407763  2.93499188  0.03355863
O   2.29484143  3.48013807  1.10941907
O   2.97866250  3.16518909 -0.99371942
C  -0.20966316  2.79344931 -0.33616080
C  -1.39321826  2.19245115 -0.63088604
C  -1.43450863  0.80725323 -0.91505432
C  -2.64765090  0.15430950 -1.28355530
C  -3.98658226  0.79732238 -1.23806256
O  -4.84974657  0.62153782 -2.07513371
O  -4.19437569  1.54592383 -0.15171707
C  -2.61868587 -1.15309581 -1.69971746
C  -1.42802187 -1.88629726 -1.65835342
H   3.94550545 -0.43681640  0.86444386
H   2.58129815  0.41070361  1.60397966
H   3.69375409  1.25333673  0.50381545
H   3.65980316  0.96997130 -1.80426363
H   2.44359809  0.05440297 -2.68388034
H   3.80625154 -0.78708969 -1.92407494
H   2.45440996 -3.09561116 -2.38601279
H   1.57578620 -1.74754513 -3.12926520
H   0.78517029 -3.30723102 -2.92920283
H   1.45044439 -4.11232743 -0.13249889
H  -0.13172882 -4.10949425 -0.90475116
H   0.09682420 -3.27315849  0.64049945
H   3.68557223  3.76852695 -0.72044590
H  -0.18397465  3.85784395 -0.12916910
H  -2.29635354  2.78542672 -0.66576600
H  -5.08158581  1.93081845 -0.19106906
H  -3.53382640 -1.64090006 -2.01627698
H  -1.46155628 -2.92660771 -1.95602387
N  -0.82388940 -0.71339216  3.10533407
C  -0.61941980  0.72227631  2.76161951
C   0.47448079 -1.43726380  2.97866476
C  -1.32745172 -0.82206729  4.50259001
C  -1.82006963 -1.31288347  2.17259605
H   0.83141705 -1.35778701  1.94854292
H   0.08147808  1.15456411  3.47375148
H  -0.20983352  0.77935354  1.75762420
H  -1.57695574  1.23767569  2.81329803
H  -2.75613199 -0.76381697  2.25984702
H  -1.43438996 -1.24351073  1.15907104
H  -1.96798376 -2.35650920  2.44506554
H  -0.59063463 -0.38558454  5.17469213
H  -2.27039813 -0.28309638  4.57812362
H  -1.47591824 -1.87413636  4.74020757
H   1.18909008 -0.98427799  3.66465395
H   0.31505954 -2.48162342  3.24397855

