47
Total Energy                               R     -1.552005368643233E+03
C   0.74774721  1.09640818  0.07917823
C   1.47988084  2.36491524  0.47396181
C   1.18406412  0.66216474 -1.33541335
N   1.19755207  0.01964177  1.04367117
O   2.01615060  0.26971323  1.84887785
C   0.65637085 -1.38197129  0.98939977
C   1.71892917 -2.20328424  0.23169907
C   0.54421849 -1.87094722  2.43956870
C  -0.71233057 -1.37615866  0.33850277
C  -1.43982320 -0.17211406  0.12707575
C  -0.78226885  1.09838096  0.15446341
C  -1.53666227  2.24264050  0.04314447
C  -1.03964193  3.65750627  0.08339205
O  -0.97312769  4.31529350  1.09497956
O  -0.78759863  4.13857422 -1.13059558
C  -2.93429624  2.16090567 -0.16298996
C  -3.56089381  0.95874572 -0.28635340
C  -2.83518755 -0.24894698 -0.14418790
C  -3.43239007 -1.53242475 -0.31919957
C  -4.88584165 -1.74322169 -0.57748282
O  -5.30973773 -2.55066511 -1.37714908
O  -5.68336584 -1.00396231  0.19133384
C  -2.66237006 -2.66515388 -0.25291492
C  -1.31006390 -2.58832240  0.10977059
H   2.55407888  2.18245058  0.45929420
H   1.19434951  2.72229545  1.46271490
H   1.28912591  3.13353437 -0.27089210
H   2.25942303  0.48805090 -1.36824801
H   0.93829587  1.49778292 -1.99241873
H   0.65330974 -0.21771914 -1.69442033
H   2.68744298 -2.08451125  0.71626885
H   1.79230053 -1.92613232 -0.81738668
H   1.42926684 -3.25174508  0.29990742
H   1.52169005 -1.88920513  2.92004676
H   0.15073438 -2.88631722  2.41964617
H  -0.13842489 -1.23925585  3.01112002
H  -0.53043014  5.07122727 -1.06970087
H  -3.50356075  3.07809715 -0.26545564
H  -4.61944655  0.93539104 -0.50374515
H  -6.60840724 -1.19349663 -0.02271970
H  -3.11226895 -3.63737447 -0.41582316
H  -0.76189373 -3.51072557  0.25911803
B   5.00347639 -0.72094195 -0.66899488
F   4.26249359  0.13849947  0.17068302
F   4.31211114 -0.89988035 -1.88482560
F   6.26654458 -0.14918305 -0.92505319
F   5.17095723 -1.96849056 -0.03383652

