50
Total Energy                               R     -9.997392820236569E+02
C   1.96193106 -0.06653138 -1.33498048
C   2.37336659 -0.88916286 -2.55568808
C   1.39949750  1.28007457 -1.82286147
N   3.10280393  0.01409425 -0.38051322
O   4.01200822  1.04653762 -0.67279819
C   2.58459443  0.05387596  1.01507954
C   3.57142495 -0.64667669  1.94867414
C   2.28915956  1.45562451  1.57973083
C   1.29480309 -0.70812399  0.85820402
C   0.93617516 -0.77007997 -0.48390676
C  -0.25251698 -1.35994804 -0.86867761
C  -1.09095174 -1.89820795  0.11309309
C  -2.38150979 -2.48025785 -0.31537955
O  -2.78757870 -2.48297625 -1.46257500
O  -3.09463325 -3.01252723  0.68449604
C  -0.72156167 -1.84834796  1.46104246
C   0.47541448 -1.25115091  1.83832631
H   3.20336082 -0.40077923 -3.07533161
H   1.54524136 -0.98357392 -3.26505534
H   2.69238274 -1.89299204 -2.26290956
H   2.13593797  1.81054992 -2.43110503
H   1.10359459  1.93302024 -1.00144066
H   0.51597356  1.10173610 -2.44348738
H   4.53407726 -0.12691662  1.93268594
H   3.73407401 -1.68330046  1.64199717
H   3.20830836 -0.64492251  2.98100260
H   3.21304552  2.02697417  1.69471902
H   1.82702760  1.36070297  2.56700488
H   1.60918611  2.02905591  0.94929036
H  -0.54665385 -1.39567342 -1.91230638
H  -3.92205155 -3.36672375  0.33067685
H  -1.37535568 -2.26392806  2.21808893
H   0.75121053 -1.20148414  2.88684898
N  -2.45716469  2.18628708  0.11421032
C  -1.86563916  3.25916292 -0.73375663
C  -2.95359521  1.08474132 -0.75838763
C  -1.41559279  1.65365834  1.03870743
C  -3.58979693  2.74218217  0.90585202
H  -3.71982351  1.48447905 -1.42050841
H  -1.04537763  2.83652043 -1.31042564
H  -2.63592718  3.64186635 -1.40106672
H  -1.49933134  4.05448323 -0.08708660
H  -3.21245298  3.54010446  1.54308929
H  -4.33911144  3.13221242  0.21905965
H  -4.01499742  1.94509435  1.51326427
H  -0.60968452  1.23397205  0.44253125
H  -1.04478059  2.47036318  1.65573171
H  -1.86511331  0.88349052  1.66211010
H  -2.11896364  0.69670269 -1.33916850
H  -3.37285586  0.30303044 -0.12750151

