38
Total Energy                               R     -1.209836104983213E+03
C  -2.02906184 -0.82102490  1.09947213
C  -2.72517782 -2.14791969  1.38674566
C  -1.79201467 -0.00211646  2.37353288
N  -2.92841121  0.00903044  0.21494593
O  -4.04178602  0.25168629  0.48845806
C  -2.26294133  0.52068016 -1.03961321
C  -3.13714756  0.16640136 -2.23705601
C  -2.10702707  2.03726095 -0.86022204
C  -0.95370835 -0.20979111 -0.96250356
C  -0.81805418 -0.92815784  0.21664615
C   0.34174011 -1.62732317  0.49073211
C   1.37238159 -1.59827919 -0.44775318
C   2.62886761 -2.32048091 -0.12496053
O   2.81278726 -2.94054208  0.90327977
O   3.55852596 -2.22551235 -1.07725845
C   1.22835975 -0.88528267 -1.64145470
C   0.06025609 -0.18570577 -1.90604543
H  -3.64737145 -1.98410839  1.94575791
H  -2.04552721 -2.74565686  1.99629198
H  -2.93978236 -2.68949916  0.46422031
H  -2.72810568  0.12525776  2.91938410
H  -1.35731189  0.97108244  2.14407331
H  -1.09013456 -0.56414548  2.99170661
H  -4.10262836  0.66890745 -2.16719911
H  -3.28330761 -0.91193880 -2.31457937
H  -2.62300987  0.51866965 -3.13259160
H  -3.08804178  2.51233678 -0.81241553
H  -1.56867813  2.40921520 -1.73327905
H  -1.53278133  2.27415162  0.03625511
H   0.45577354 -2.17890977  1.41678323
H   4.34875582 -2.71166593 -0.80311509
H   2.03575016 -0.86551498 -2.36219056
H  -0.04847027  0.37934686 -2.82467128
B   2.10219310  2.24259346  0.48956051
F   1.51955096  2.62255792 -0.73716365
F   2.68211942  3.37594328  1.10137699
F   1.11141135  1.71018786  1.33919671
F   3.10111076  1.27371892  0.26127753

