50
Total Energy                               R     -9.996206754874174E+02
C   0.34628807 -0.95402839  1.02675140
C  -0.27987597 -1.97618128  0.07542639
C   0.62930908 -1.57402341  2.39210700
N  -0.55217064  0.21820768  1.17606769
O  -1.71951279  0.11138387  1.65794589
C  -0.07503082  1.47457526  0.54615826
C  -0.93191288  1.80620698 -0.67776613
C  -0.10090126  2.61295405  1.56228459
C   1.31916338  1.06133274  0.15523150
C   1.55184408 -0.28314965  0.42017361
C   2.77155987 -0.86074877  0.11902604
C   3.76749872 -0.06965660 -0.45747885
C   5.06858557 -0.70540748 -0.77629606
O   5.33356076 -1.87080559 -0.55389603
O   5.94707797  0.12601577 -1.34370780
C   3.53120571  1.28338590 -0.72346775
C   2.30352830  1.85459605 -0.41685118
H  -1.21083641 -2.36596245  0.49406517
H   0.41061280 -2.81118937 -0.06530169
H  -0.48922738 -1.52969166 -0.89961149
H  -0.29259257 -1.96087108  2.83253784
H   1.06842111 -0.84180193  3.07349167
H   1.32829251 -2.40579661  2.27764979
H  -1.96432561  1.99626340 -0.37765091
H  -0.91750192  0.98788660 -1.40071290
H  -0.54231154  2.70536671 -1.16084096
H  -1.12603650  2.80704914  1.88622948
H   0.29003208  3.52311899  1.10187214
H   0.50884749  2.37469598  2.43671844
H   2.95716820 -1.90948572  0.32335291
H   6.76784262 -0.35183871 -1.52691616
H   4.30760055  1.89195189 -1.16999689
H   2.12153060  2.90392658 -0.62311127
N  -4.77508985 -0.35982970 -0.76846778
C  -4.76116980  1.07744071 -0.37314268
C  -5.73120563 -0.55925669 -1.89355508
C  -3.40744448 -0.76944641 -1.19898187
C  -5.19107651 -1.19010930  0.39709578
H  -6.72741559 -0.26873538 -1.56433923
H  -4.43387573  1.67105872 -1.22478591
H  -5.76853977  1.36740134 -0.07870988
H  -4.07496921  1.20410255  0.46218914
H  -4.47164901 -1.04626479  1.20164395
H  -6.18270566 -0.87424248  0.71668506
H  -5.20937410 -2.23495910  0.09232997
H  -3.11814350 -0.16991997 -2.06016626
H  -2.72638426 -0.59842388 -0.36987305
H  -3.42695463 -1.82561401 -1.46287601
H  -5.41648844  0.05969018 -2.73207591
H  -5.72139283 -1.61001558 -2.17802297

