51
Total Energy                               R     -1.271961824114178E+03
C  -1.71184331 -1.88545257 -1.02446168
C  -0.78508551 -1.08450304 -1.95512235
C  -1.79646234 -3.31396872 -1.56008145
N  -1.30212906 -1.93141036  0.39258123
O   0.04754087 -2.22807379  0.57648701
C  -1.72014146 -0.67953765  1.06945253
C  -2.00810358 -0.99537382  2.53873105
C  -0.66610004  0.43956484  1.03966889
C  -3.05367111 -0.32657055  0.31688790
C  -3.16174237  1.13934331 -0.00358068
O  -2.92747166  1.66885292 -1.06444205
O  -3.56853678  1.85354727  1.06116227
C  -3.09710846 -1.23796916 -0.92257169
H   0.24123795 -1.44365921 -1.85959735
H  -0.79924145 -0.01392918 -1.74624896
H  -1.09876425 -1.21472258 -2.99681175
H  -0.80197803 -3.76948363 -1.59358105
H  -2.21205041 -3.33319290 -2.57372191
H  -2.43164813 -3.93165819 -0.91699778
H  -1.09573508 -1.34675314  3.03036823
H  -2.76596269 -1.77992574  2.62535239
H  -2.36482094 -0.11058561  3.07657383
H   0.25424629  0.06117774  1.48452535
H  -0.99921902  1.30041098  1.62667552
H  -0.42835030  0.78915101  0.03624136
H  -3.89081420 -0.55190424  0.98046058
H  -3.57574844  2.79144403  0.81722209
H  -3.35257978 -0.68467421 -1.82860158
H  -3.86281049 -2.00469212 -0.77809148
N   3.27129887 -1.64322287  0.18854057
C   2.81401584 -2.85908684 -0.54621945
C   2.88240839 -1.76984191  1.62402223
C   4.74473644 -1.49569463  0.06927715
C   2.58997673 -0.44693554 -0.38723019
H   1.79508394 -1.88179018  1.65788587
H   3.31288136 -3.72885555 -0.11910994
H   1.72867265 -2.92302790 -0.42179742
H   3.08788302 -2.75148938 -1.59557460
H   2.86242011 -0.36386847 -1.43858440
H   1.51865370 -0.60597866 -0.26851958
H   2.91794136  0.43640013  0.15660303
H   5.22325433 -2.37642303  0.49545810
H   5.00496391 -1.40188749 -0.98422773
H   5.05370203 -0.60271992  0.61110847
H   3.38226631 -2.64372240  2.04166452
H   3.20400917 -0.87080808  2.14928351
B   1.40529346  3.33160878 -0.28944900
F   2.21097301  4.42521683 -0.67947604
F   1.34160721  2.40111350 -1.34618212
F   1.97083908  2.72235952  0.85080683
F   0.10817141  3.79165494  0.01631175

