51
Total Energy                               R     -1.271966297878369E+03
C   1.55171251  2.36490857  0.33569866
C   2.29720829  1.89667626  1.59229736
C   2.23608889  3.63296743 -0.18228098
N   1.52823483  1.37177870 -0.77162333
O   2.64123662  0.53335590 -0.79906701
C   0.24584897  0.63656235 -0.73787045
C  -0.01110430  0.03266891 -2.11471133
C   0.17151678 -0.48568211  0.31062525
C  -0.71378409  1.81065857 -0.40899309
C  -2.08036638  1.36638629  0.03663345
O  -2.45976661  1.27816455  1.18399401
O  -2.86986998  1.05420380 -0.99539961
C   0.05713786  2.61090290  0.64150556
H   3.35257634  1.71883155  1.37513182
H   1.87943462  0.97468237  2.00112030
H   2.22809807  2.66747247  2.36863659
H   3.24685328  3.40016231 -0.53358663
H   2.31618977  4.39768042  0.59924908
H   1.67631606  4.05999902 -1.02075646
H   0.76839512 -0.69985680 -2.34343413
H   0.01150220  0.80675250 -2.88821959
H  -0.98013805 -0.47182582 -2.16016980
H   1.03096234 -1.14529579  0.18115294
H  -0.73904886 -1.08085915  0.18427155
H   0.17910898 -0.11089844  1.33604804
H  -0.84059441  2.39343462 -1.32538537
H  -3.71733438  0.70186009 -0.66463091
H  -0.19504663  2.24247968  1.63848560
H  -0.20770148  3.67168666  0.61432314
N   4.53108180 -1.95490798  0.14787047
C   3.59670613 -2.39168998 -0.93127993
C   5.41595201 -3.08004688  0.54589413
C   5.34841603 -0.81189996 -0.35589821
C   3.72973887 -1.48954455  1.31811347
H   4.79881975 -3.90009839  0.91042015
H   4.18636850 -2.72190582 -1.78618492
H   2.99365393 -3.21697705 -0.55363900
H   2.97491038 -1.52865227 -1.18545580
H   3.10923588 -0.66476665  0.95776281
H   3.12387101 -2.32096106  1.67707187
H   4.41530535 -1.16192809  2.09926343
H   5.92124369 -1.15010676 -1.21900228
H   4.65857992 -0.00936905 -0.62821102
H   6.02448686 -0.49437129  0.43751132
H   5.99077229 -3.40136317 -0.32172805
H   6.08615881 -2.73805180  1.33350004
B  -5.27563392 -1.37276104  0.19888526
F  -4.01959939 -1.94260180 -0.06817776
F  -6.28857883 -2.11290981 -0.43064397
F  -5.50048394 -1.32312924  1.58297394
F  -5.29058845 -0.03858637 -0.32041036

