51
Total Energy                               R     -1.271679005356382E+03
C   0.15817677  0.14976742  1.45682800
C  -1.10806912 -0.64845436  1.13631424
C   1.02771961 -0.59545749  2.47111306
N   0.93863833  0.25491381  0.17231964
O   1.22754697 -0.68007229 -0.47584617
C   1.31150425  1.65837041 -0.21120920
C   2.71805031  1.87677334  0.38225869
C   1.33359746  1.78977856 -1.72332386
C   0.26045824  2.47923307  0.57031801
C  -0.95139923  2.79955600 -0.28364853
O  -1.88395110  2.05834974 -0.47505626
O  -0.86656769  4.01394844 -0.82283441
C  -0.08526710  1.62435965  1.80749036
H  -0.85823214 -1.66945621  0.84410809
H  -1.69149495 -0.16720572  0.35338877
H  -1.70490579 -0.68281376  2.04899820
H   1.22778035 -1.61607195  2.14289090
H   0.46315803 -0.63165038  3.40501189
H   1.96831400 -0.07593416  2.65313696
H   3.42341263  1.16908895 -0.05161894
H   2.73180155  1.78822103  1.46885965
H   3.01174451  2.89182499  0.10980757
H   2.12417013  1.17325215 -2.15150488
H   1.54670403  2.83112820 -1.96839834
H   0.38088356  1.50782916 -2.17730845
H   0.72175558  3.41920779  0.86792104
H  -1.64425343  4.17202566 -1.38217591
H  -1.11622959  1.77563881  2.12300535
H   0.56416549  1.91908822  2.63122942
N  -5.05645194 -1.41036173 -0.31288235
C  -3.94659189 -2.35762419 -0.00531132
C  -6.17947683 -1.63291763  0.64202906
C  -4.56242052 -0.00896508 -0.18389716
C  -5.53560638 -1.64295503 -1.70586598
H  -6.52592873 -2.65993541  0.54093324
H  -3.61539551 -2.18635296  1.01712226
H  -4.31723588 -3.37542771 -0.11505030
H  -3.13079766 -2.17748168 -0.70287314
H  -4.70580853 -1.47986562 -2.39138333
H  -5.89276481 -2.66826303 -1.78511462
H  -6.34329163 -0.94516593 -1.91907197
H  -4.20512822  0.14251526  0.83294572
H  -3.75307882  0.14462190 -0.89373449
H  -5.38524856  0.67093902 -0.39859844
H  -5.81781463 -1.45592905  1.65350895
H  -6.98331733 -0.93883145  0.40311878
B   4.48410106 -1.68051667 -0.44217573
F   3.84287055 -2.77247745 -1.06141384
F   3.76960112 -1.30788128  0.71613722
F   5.79797361 -2.04750734 -0.08237760
F   4.53077114 -0.59111976 -1.33823622

