57
Total Energy                               R     -1.373647473504169E+03
C   1.06271431 -0.82545540  1.60993912
C   1.91975196 -1.90171378  0.92412887
C   1.10421850 -1.00605139  3.13742483
N   1.67570197  0.47854937  1.26288064
O   2.89869529  0.60651701  1.58246460
C   0.91446788  1.73226700  1.04141243
C   0.63399998  2.39385351  2.40422962
C   1.79245417  2.64931765  0.18328651
C  -0.41030997  1.43659445  0.36003291
C  -1.03244509  0.15694830  0.45823368
C  -0.36568873 -0.92338932  1.10397897
C  -1.01321818 -2.12520740  1.26386773
C  -2.26789516 -2.35009126  0.69364684
C  -2.88745011 -1.34953006 -0.00031099
N  -4.05565006 -1.76063777 -0.78282105
O  -4.83756647 -2.54356557 -0.28371852
O  -4.14090397 -1.34034422 -1.92486655
C  -2.34717681 -0.03958217 -0.08000741
C  -2.99436515  1.09846610 -0.63000583
N  -4.42901156  1.11422840 -0.93018552
O  -5.17493128  0.56926591 -0.13395995
O  -4.80381750  1.72169815 -1.91190373
C  -2.36312929  2.30145577 -0.76283023
C  -1.06180579  2.46277954 -0.27803121
H   2.95601505 -1.80783584  1.24757110
H   1.87413572 -1.79525484 -0.16228074
H   1.57050911 -2.89920170  1.19170176
H   2.12498234 -0.85312780  3.49200873
H   0.79672662 -2.01801192  3.40688116
H   0.44283330 -0.30088435  3.64331581
H   1.57319335  2.53255512  2.94479934
H  -0.04012303  1.78810297  3.01264934
H   0.17051262  3.37077125  2.25040604
H   2.78042972  2.73342099  0.63188184
H   1.36667152  3.65092634  0.13202506
H   1.89566888  2.25891127 -0.83135740
H  -0.53588011 -2.94887948  1.77882611
H  -2.71730435 -3.33388854  0.74590013
H  -2.89119633  3.14711843 -1.18562826
H  -0.61178907  3.44234634 -0.36189866
N   5.14608215 -0.46966604 -1.53529034
C   5.60877577 -0.27876585 -0.13045810
C   3.92099004  0.34819995 -1.76775876
C   6.21877681 -0.03692967 -2.47510223
C   4.83425408 -1.90918362 -1.76400721
H   3.14397640  0.01598781 -1.08299712
H   5.85359458  0.77206393  0.01426251
H   4.80580526 -0.56855272  0.54373472
H   6.49028324 -0.89684252  0.03202813
H   5.73874931 -2.49283224 -1.60042922
H   4.05877248 -2.21310110 -1.06357862
H   4.48618780 -2.03239401 -2.78817061
H   6.42811598  1.01760342 -2.30338883
H   7.11039919 -0.63234803 -2.28598402
H   5.87271693 -0.19022799 -3.49587518
H   4.16210009  1.39343402 -1.58333381
H   3.60073201  0.21035936 -2.79929942

