57
Total Energy                               R     -1.373755454906923E+03
C  -1.05149700  1.05586544  1.26963407
C  -1.87139558  2.27200346  0.81154021
C  -0.98334497  1.07948244  2.81439160
N  -1.72951117 -0.12214849  0.69136936
O  -3.03375551 -0.21638078  1.18050613
C  -1.05051551 -1.42811557  0.82322074
C  -1.10962927 -2.04543373  2.23910301
C  -1.79167327 -2.36961743 -0.14383125
C   0.40323148 -1.31374755  0.39979763
C   1.06195029 -0.04975688  0.33850483
C   0.36778299  1.13593876  0.73290251
C   1.02450288  2.34328186  0.69351761
C   2.31992544  2.44784842  0.17773394
C   2.98555340  1.32620865 -0.23003173
N   4.22493634  1.56396137 -0.96801453
O   4.95859282  2.45813722 -0.59466263
O   4.42645507  0.88966254 -1.96554047
C   2.42996980  0.02596582 -0.08052977
C   3.10983836 -1.20253450 -0.28730758
N   4.56589560 -1.27913558 -0.40919187
O   5.23305081 -0.54694646  0.30383078
O   5.03894550 -2.10879043 -1.16082035
C   2.46759537 -2.40876639 -0.21781022
C   1.10988215 -2.45714209  0.10187735
H  -2.88845972  2.15594211  1.18073714
H  -1.90384229  2.33206930 -0.28054901
H  -1.47591411  3.21083308  1.20249086
H  -1.95397953  0.76439670  3.20423480
H  -0.76890408  2.09019516  3.17374985
H  -0.21021219  0.41932071  3.21024403
H  -2.11242480 -1.87500517  2.63621918
H  -0.37808004 -1.60987103  2.92086015
H  -0.92049486 -3.12180106  2.19695881
H  -2.84690303 -2.37496249  0.12565439
H  -1.42186816 -3.39535211 -0.09247166
H  -1.69892281 -2.01604236 -1.17480043
H   0.53624366  3.25188074  1.01832602
H   2.77852821  3.42158836  0.05617724
H   3.02358503 -3.32592351 -0.36917140
H   0.63645236 -3.42849604  0.15773114
N  -5.29641791  0.18940059 -1.24437213
C  -5.49314679 -1.11458737 -0.54636825
C  -3.92945289  0.21310790 -1.84469862
C  -6.32380690  0.36520715 -2.30307057
C  -5.39669975  1.28758515 -0.23965150
H  -3.20772253  0.10032055 -1.03399298
H  -5.40331631 -1.91716393 -1.27802237
H  -4.71290572 -1.18341025  0.21552609
H  -6.48807308 -1.12355391 -0.10205312
H  -6.39752419  1.27450767  0.19088463
H  -4.63162013  1.08956052  0.51478308
H  -5.21886915  2.23743930 -0.74316404
H  -6.22687444 -0.44434010 -3.02526401
H  -7.31107790  0.34042175 -1.84380459
H  -6.16337492  1.32454190 -2.79324134
H  -3.85191209 -0.60815168 -2.55690490
H  -3.79658384  1.16429249 -2.35972524

