29
Total Energy                               R     -4.946122178861189E+02
C   1.67561742 -1.26654248 -0.03125010
C   2.22871740 -2.41109556 -0.88994550
C   1.97789699 -1.60556777  1.44146976
N   2.26033267  0.00000186 -0.53956969
O   3.66608680  0.00000538 -0.35502313
C   1.67561358  1.26654353 -0.03125015
C   1.97787986  1.60556131  1.44147409
C   2.22871869  2.41110092 -0.88993721
C   0.15019056  1.24325596 -0.26643361
C  -0.47644932  0.00000146  0.32383481
I  -2.64419072 -0.00000073 -0.03166127
C   0.15019212 -1.24325826 -0.26642331
H   3.28621408 -2.59153989 -0.68702705
H   2.11612172 -2.18799105 -1.95490239
H   1.68620555 -3.33758865 -0.67716317
H   3.03556988 -1.44451981  1.66050890
H   1.75605086 -2.66028674  1.63129038
H   1.39303630 -1.02107937  2.15212792
H   3.03555138  1.44451561  1.66052141
H   1.39301462  1.02106631  2.15212345
H   1.75602826  2.66027839  1.63129855
H   3.28621377  2.59154556 -0.68701010
H   1.68620431  3.33759255 -0.67715514
H   2.11613118  2.18800080 -1.95489589
H  -0.04168380  1.26695286 -1.34437885
H  -0.28270984  2.14863491  0.16701466
H  -0.43673464  0.00000716  1.41096624
H  -0.04168807 -1.26696677 -1.34436725
H  -0.28270443 -2.14863394  0.16703580

