29
Total Energy                               R     -4.945004241208959E+02
C   1.65986554 -1.31644605 -0.00551185
C   2.26364018 -2.36346797 -0.94031613
C   1.94762443 -1.70785022  1.44981906
N   2.29773041 -0.00000019 -0.30331331
O   3.56986740  0.00000247 -0.40998096
C   1.65986786  1.31644349 -0.00551146
C   1.94762943  1.70784606  1.44981922
C   2.26364550  2.36346525 -0.94031488
C   0.14767150  1.24135161 -0.28084808
C  -0.47731318  0.00000008  0.32125958
I  -2.63216763  0.00000109 -0.03705584
C   0.14767016 -1.24135141 -0.28084940
H   3.31403041 -2.54832295 -0.71233255
H   2.17854245 -2.05566339 -1.98529865
H   1.71916409 -3.30242388 -0.81471743
H   3.02043963 -1.65883820  1.64988929
H   1.61602324 -2.73599920  1.61507101
H   1.43272414 -1.06949403  2.16867088
H   3.02044482  1.65882980  1.64988756
H   1.43272834  1.06949061  2.16867102
H   1.61603218  2.73599620  1.61507142
H   3.31404390  2.54829704 -0.71234892
H   1.71919030  3.30243038 -0.81469533
H   2.17852229  2.05567428 -1.98529928
H  -0.01603531  1.23689918 -1.36307031
H  -0.30292782  2.15198234  0.11861873
H  -0.42393071 -0.00000041  1.40806292
H  -0.01603668 -1.23689691 -1.36307166
H  -0.30293132 -2.15198199  0.11861556

