38
Total Energy                               R     -8.058643629725748E+02
C   1.70694999  1.07867044 -0.07251696
C   2.29935819  1.41297757  1.31604160
C   2.33367974  2.04125146 -1.09702872
N   2.03797625 -0.27879014 -0.57124212
O   3.42185074 -0.48667036 -0.49092336
C   1.31089460 -1.41406619  0.04716774
C   1.69827870 -2.65004085 -0.77813452
C   1.68733266 -1.69315965  1.52073864
C  -0.18704550 -1.16198185 -0.03870556
C  -0.69227206  0.17192973 -0.04181605
C   0.19845613  1.28546352 -0.03106259
C  -0.32096071  2.55853241  0.05225028
C  -1.70817560  2.78819544  0.10487237
C  -2.58418155  1.73647930  0.05656850
N  -4.38821154 -0.49168804 -0.02802366
C  -2.10284238  0.40641077 -0.02300625
C  -3.00445645 -0.70577592 -0.06444443
C  -2.48409663 -1.97774206 -0.06347950
C  -1.09260864 -2.19436993 -0.03522623
H   3.31823232  1.02114368  1.35341954
H   1.72272578  0.98083904  2.13515142
H   2.32762176  2.49587220  1.47195636
H   3.39658061  1.81050605 -1.17524059
H   2.22452166  3.08909216 -0.80793649
H   1.87724828  1.90436888 -2.08263585
H   2.78313269 -2.75140984 -0.75691187
H   1.38380978 -2.53517597 -1.82074318
H   1.25585527 -3.56731538 -0.38268861
H   2.77136616 -1.60825096  1.63032292
H   1.38209085 -2.70383073  1.81073708
H   1.20590203 -0.99889952  2.21174341
H   0.34372333  3.41476703  0.08529076
H  -2.08035110  3.80517316  0.18187648
H  -3.64977102  1.93253867  0.10227658
H  -4.71370581  0.27833876 -0.59632127
H  -4.91805022 -1.32388608 -0.25036371
H  -3.15618616 -2.83161938 -0.08574007
H  -0.74776810 -3.22218670 -0.01525540

