38
Total Energy                               R     -8.055897054087366E+02
C  -0.16325730 -1.16779218 -0.02535237
C   1.96269754  1.68766138 -1.64553950
C  -1.04604725 -2.19393662 -0.26671501
N   2.05251594 -0.38262856 -0.35134651
O   2.95243233 -0.70300297 -1.04735619
C   1.70777762  1.08619992 -0.25719336
C   1.81682978 -2.79458494  0.00726377
C   2.70662595  1.67096090  0.76408100
C   1.27344875 -1.43420904  0.39864532
C   0.24699240  1.25985910  0.12305828
C  -0.65139631  0.16367706  0.04310995
C  -2.42011837 -1.95250294 -0.38200701
C  -2.94689747 -0.68303087 -0.20943683
C  -2.50578530  1.73325960  0.26214431
N  -4.30832344 -0.48767346 -0.21421731
C  -2.04970987  0.41403154  0.03095344
C  -1.61595801  2.75854830  0.45362074
C  -0.23246121  2.52664314  0.35076866
C   1.46952292 -1.18693479  1.90366848
H   3.00930947  1.59421615 -1.93432246
H   1.71348507  2.74732252 -1.59947249
H   1.32828573  1.21178153 -2.39644258
H   1.68785496 -3.00122065 -1.05655992
H  -3.09110707 -2.78404408 -0.57264528
H  -0.69990046 -3.21821105 -0.33749082
H   2.87449025 -2.87424506  0.26208091
H   1.28397974 -3.55380550  0.57904284
H   2.52867589 -1.21311723  2.16925252
H   3.72964811  1.43544248  0.46544516
H   2.52712744  1.31502763  1.77654016
H   2.59211114  2.75489582  0.74891205
H  -4.85551670 -1.25825512 -0.56938194
H  -4.66095902  0.40518449 -0.52340820
H  -3.56734888  1.94859243  0.30617678
H  -1.97481952  3.76347959  0.64580447
H   0.44577099  3.37090900  0.40962767
H   0.95871750 -2.00403665  2.41626537
H   1.02780589 -0.25087573  2.24195285

