42
Total Energy                               R     -1.127671741473091E+03
C   0.79657838 -1.74592929 -0.12826809
C  -2.14075921  1.35153323  1.55783791
C   2.19971927 -1.87688589 -0.09101204
N  -0.93464849  2.03762144 -0.59523072
O  -4.01893148 -1.45908844  1.21353390
C  -1.97438407 -1.49986119 -0.04281515
C  -1.36781209 -2.78048606 -0.13486724
C  -3.45596822 -1.59734038  0.14932842
C  -1.23455711 -0.33280352 -0.04669579
C   0.19234695 -0.45523586 -0.09921234
C   1.03938724  0.69095911 -0.07816544
C   0.68080183  2.75690486  1.26719596
C   4.46251653 -0.93894788  0.07523740
O   5.13143634  0.20946378  0.21076560
O   5.02775698 -2.01427057  0.02915498
C   2.40079035  0.51954597 -0.00256703
C   1.23341802  2.92771715 -1.15935520
C   0.46469759  2.09713383 -0.11446176
C   2.99207042 -0.76185478 -0.00481172
C  -1.84926736  1.06433124  0.06695856
C  -3.16558474  1.15699066 -0.71996949
O  -1.49270998  3.33383328 -0.55053345
O  -4.09072867 -1.97918061 -0.95990208
C  -0.01458322 -2.90453166 -0.16986651
H  -1.32871626  1.02468283  2.20819731
H  -2.29850693  2.42238310  1.70616938
H   0.13393258  3.69932225  1.32987628
H   0.36899880  2.11781075  2.09249231
H   6.07942408  0.02457257  0.26436465
H   2.63747891 -2.86877914 -0.11189814
H  -1.99878296 -3.66290706 -0.15042117
H   0.45500954 -3.88139479 -0.21430086
H  -5.03166761 -2.11048665 -0.76999583
H  -3.04401147  0.82831272  1.87710805
H  -3.97670622  0.60199076 -0.25274555
H  -3.48183188  2.19779679 -0.74882680
H   1.74319798  2.97437420  1.40726886
H   3.04889157  1.38361334  0.05345289
H   2.28766437  3.03460854 -0.89903330
H   1.16831019  2.46217427 -2.14674351
H   0.80808120  3.92966059 -1.22206958
H  -3.03927529  0.80541798 -1.74737399

