42
Total Energy                               R     -1.127555828619390E+03
C   0.82815797 -1.70218093 -0.11988599
C  -2.12894283  1.25261475  1.67669710
C   2.23428282 -1.80887699 -0.07355651
N  -1.00331176  2.10040240 -0.34031129
O  -4.00282590 -1.58466823  1.16818435
C  -1.94899071 -1.52167531 -0.06792283
C  -1.31318467 -2.78408165 -0.18123868
C  -3.43234267 -1.65461062  0.10243297
C  -1.23111990 -0.34244856 -0.02906990
C   0.19676382 -0.42540713 -0.07692975
C   1.02695091  0.73191481 -0.05368639
C   0.79286550  2.95430806  1.11080159
C   4.48506273 -0.74450678  0.10686086
O   5.20325186  0.22967937  0.21011652
O   4.96914653 -1.98770028  0.06496373
C   2.38963388  0.58805983  0.01777858
C   1.05207762  2.83726091 -1.38844208
C   0.46791257  2.13770959 -0.15121038
C   3.00505819 -0.67999220  0.01971435
C  -1.89823645  1.01733621  0.17251036
C  -3.21567985  1.15603096 -0.59497390
O  -1.54439942  3.23628791 -0.53587241
O  -4.04664033 -1.97459450 -1.03459519
C   0.04320958 -2.87570071 -0.19215620
H  -1.21735908  1.08069727  2.25110809
H  -2.46787998  2.27787127  1.84320337
H   0.31659300  3.93455933  1.05086681
H   0.45648676  2.45062339  2.01755557
H   3.02889935  1.46138480  0.05665733
H   5.93316182 -1.95793407  0.13650561
H   0.53551211 -3.84056046 -0.24547662
H   2.68006990 -2.79592304 -0.10008824
H  -1.92339911 -3.67960418 -0.22715972
H  -2.89443310  0.56759819  2.04312090
H  -4.98945042 -2.12665252 -0.86897844
H  -4.00143676  0.55886048 -0.14039654
H   1.87116639  3.10538719  1.18487915
H   2.13384105  2.92993905 -1.29073961
H   0.63667668  3.83998749 -1.48856185
H   0.83267131  2.26951372 -2.29575760
H  -3.55626440  2.18782754 -0.55176970
H  -3.10080628  0.86704811 -1.64150483

