53
Total Energy                               R     -1.188306145955490E+03
C   1.06803340  1.81141706  0.70016624
C  -0.09370773  2.51278380  1.40895973
C   2.08286408  2.86726146  0.23022414
N   1.61003815  0.78248400  1.62873529
O   2.48519076  1.29843294  2.59414434
C   2.18074096 -0.34618034  0.84584914
C   2.04957784 -1.61597181  1.69115122
C   3.65060238 -0.17132201  0.42907624
C   1.25286467 -0.32373441 -0.35303700
C   0.61779517  0.91948633 -0.44080594
C  -0.35495920  1.13727525 -1.41417990
C  -1.14065532  2.39870357 -1.55254360
O  -2.35183872  2.43610947 -1.49311796
O  -0.39681332  3.47189942 -1.80150670
C  -0.70448376  0.10245803 -2.28446453
C  -0.08375289 -1.12877864 -2.19152613
C   0.90724231 -1.34693901 -1.23255913
C   1.47049369 -2.72794843 -1.17314972
O   0.78765294 -3.71826888 -1.01562923
O   2.78590339 -2.77816074 -1.35809370
H   0.26933244  2.94995704  2.34328597
H  -0.89040941  1.80432883  1.65089978
H  -0.51525637  3.32723120  0.81493659
H   2.53610381  3.35544869  1.09555284
H   1.58117526  3.63024688 -0.36587972
H   2.88132249  2.44140353 -0.37813502
H   2.53494450 -1.45201923  2.65714397
H   2.53722562 -2.47766111  1.22929592
H   1.00010495 -1.86186858  1.87394018
H   4.26784549 -0.01388339  1.31605044
H   3.79882089  0.67369554 -0.24388852
H   4.00693908 -1.06854278 -0.07818504
H  -0.96622488  4.25263436 -1.86995684
H  -1.47607577  0.26244726 -3.02909787
H  -0.37062927 -1.92984631 -2.86347063
H   3.08983335 -3.69477849 -1.28658649
N  -3.24416332 -1.06947110  0.98564923
C  -3.99971294 -2.09977025  1.75174580
C  -1.78085990 -1.31028789  1.13659341
C  -3.61543137 -1.14648322 -0.45572750
C  -3.57496358  0.28774447  1.50645111
H  -1.52756388 -1.26503519  2.19435737
H  -3.74861944 -3.08250610  1.35616444
H  -3.71561953 -2.03310538  2.80053548
H  -5.06565060 -1.91003448  1.63817155
H  -4.64656405  0.44989441  1.40161221
H  -3.28654647  0.34089646  2.55468888
H  -3.02515253  1.02623907  0.92534246
H  -3.33202964 -2.12483422 -0.83974868
H  -4.69076573 -1.00191814 -0.54680338
H  -3.08653768 -0.36284611 -0.99396196
H  -1.54123810 -2.29152521  0.72990229
H  -1.25077570 -0.53349042  0.59342679

