53
Total Energy                               R     -1.188186058957911E+03
C   0.09741876  1.10223044  0.78653462
C  -1.01385349  1.57863159 -0.15503168
C   0.29061031  2.07194140  1.95063596
N  -0.27319800 -0.22986176  1.32546655
O  -1.32491567 -0.39442618  2.01019097
C   0.43780418 -1.37911619  0.71323685
C  -0.50908871 -2.07878116 -0.26855104
C   0.89032720 -2.33044095  1.81870613
C   1.57638124 -0.64283115  0.03525831
C   1.38492925  0.73982474  0.07368873
C   2.36457309  1.59639451 -0.42837480
C   2.21710355  3.08279384 -0.44978340
O   1.28435744  3.67871416 -0.93987579
O   3.26159736  3.69767707  0.10488364
C   3.53819945  1.06042999 -0.95520613
C   3.72891740 -0.30996780 -0.99128198
C   2.74930653 -1.17258221 -0.50261381
C   3.01484012 -2.63934055 -0.60071344
O   2.27609107 -3.44434190 -1.12187263
O   4.19544694 -2.96990443 -0.07793002
H  -1.95712056  1.61438194  0.39292960
H  -1.12571851  0.90551572 -1.00679266
H  -0.78819455  2.57737343 -0.52517158
H  -0.62996979  2.12984948  2.53533199
H   0.51099606  3.07595398  1.58481588
H   1.10391655  1.74770494  2.60339252
H  -1.39133916 -2.43162245  0.27005244
H  -0.01207666 -2.93612074 -0.71948925
H  -0.82622702 -1.40027306 -1.06278841
H   0.02297277 -2.66351650  2.39251609
H   1.59563727 -1.84298345  2.49516072
H   1.36358121 -3.21704316  1.39443120
H   3.15371633  4.65741549  0.02867256
H   4.30683533  1.71886372 -1.34207136
H   4.64521014 -0.71324983 -1.40566281
H   4.35291157 -3.91703090 -0.20504783
N  -4.98997919 -0.14655749 -0.52775063
C  -3.66079850 -0.82180005 -0.55075880
C  -5.67988549 -0.36602863 -1.83032742
C  -5.81544725 -0.71472836  0.57533746
C  -4.80190925  1.31526463 -0.30259597
H  -5.06800470  0.05709440 -2.62506546
H  -3.81672071 -1.88909632 -0.69874810
H  -3.07731852 -0.40972557 -1.37127823
H  -3.15939277 -0.63993515  0.39800735
H  -4.32018733  1.46033001  0.66256956
H  -4.17750163  1.71523232 -1.09964307
H  -5.77833140  1.79692868 -0.31073248
H  -5.95012179 -1.78021097  0.39765663
H  -5.29570575 -0.55334219  1.51818404
H  -6.78009672 -0.21025650  0.58617294
H  -5.80634403 -1.43653437 -1.98273063
H  -6.65035273  0.12611747 -1.80080989

