33
Total Energy                               R     -7.853816120814972E+02
C  -2.24726110 -0.18682871 -0.00000210
C  -1.88049943 -1.53679285 -0.00000449
C  -3.67149508  0.23411068 -0.00000591
N   2.35611274  0.34126031 -0.00001003
O  -4.04740023  1.38382109 -0.00005606
C  -1.26947916  0.81003215 -0.00000052
C   2.42877903 -1.77729950 -1.26131928
C   1.35316487  2.20822134 -1.26090532
C   0.06383036  0.44047523 -0.00000042
C   0.42642055 -0.90209210 -0.00000605
C  -0.53970583 -1.89899628 -0.00000857
C   1.35317094  2.20818060  1.26095004
C   2.42878002 -1.77729598  1.26130647
O  -4.52736189 -0.79517114  0.00005079
O   3.57646094  0.67035436 -0.00000683
C   1.92262327 -1.07660934 -0.00000731
C   1.26743369  1.34811869  0.00000812
H  -2.64369593 -2.30556746 -0.00000575
H   2.07611945 -2.81154769  1.27919451
H  -0.25754206 -2.94675018 -0.00001353
H  -5.43043225 -0.44751138  0.00003950
H  -1.56161195  1.85464283  0.00000134
H   0.52389477  2.91991541  1.28224771
H   2.07088883 -1.27136943 -2.16151651
H   2.07611971 -2.81155169 -1.27920369
H   3.52131467 -1.78605977 -1.27331169
H   1.30441930  1.59029835 -2.16106338
H   2.28952040  2.77128861 -1.27055973
H   0.52388894  2.91995720 -1.28217597
H   1.30442963  1.59022772  2.16108781
H   2.07089146 -1.27136263  2.16150251
H   3.52131564 -1.78605738  1.27329765
H   2.28952672  2.77124722  1.27061841

