33
Total Energy                               R     -7.851911178532962E+02
C   2.24860065 -0.18622453 -0.00969748
C   3.67554485  0.23780398 -0.00406596
C   1.88356308 -1.53587036 -0.01385622
N  -2.36224965  0.34078291 -0.04766987
O   4.52816556 -0.79066535 -0.00601842
C   0.54471335 -1.90317340 -0.01462342
C  -1.37457415  2.24997073 -1.22980195
C  -2.47020605 -1.81449739 -1.22163015
C  -0.41639512 -0.90437392 -0.01172401
C  -0.05570195  0.43602748 -0.00987636
C   1.27470957  0.81172943 -0.00824112
C  -1.24570607  1.35418371  0.00235999
C  -1.40672847  2.13687701  1.31088605
O   4.04309586  1.38874490  0.00269161
O  -3.49365225  0.64486900 -0.11755833
C  -2.43306964 -1.68320012  1.32003650
C  -1.90634884 -1.09653328  0.00425533
H   5.43447400 -0.44690986 -0.00110994
H  -0.56401104  2.82721547  1.37638804
H   1.56230206  1.85692978 -0.00453475
H   2.64695723 -2.30393803 -0.01556470
H   0.26046674 -2.94945803 -0.01607055
H  -2.05766060 -2.70543482  1.38859881
H  -1.33836184  1.66433324 -2.14990060
H  -0.53012346  2.94095440 -1.21872577
H  -2.29903862  2.82829340 -1.19090341
H  -2.14164266 -1.33622444 -2.14573341
H  -3.56028974 -1.84442210 -1.18350105
H  -2.09169374 -2.83761927 -1.20039532
H  -1.38588045  1.47180097  2.17579823
H  -2.07292606 -1.11604772  2.17970442
H  -2.33396958  2.71224042  1.30375273
H  -3.52413522 -1.70709819  1.31884027

