33
Total Energy                               R     -7.854689974334351E+02
C  -1.93951282 -1.01390079 -0.04171892
C  -2.47386561 -2.02742485 -1.05472583
C  -1.46285924  1.92892205  1.34322635
N  -2.31118644  0.35795646 -0.48525342
O  -3.60161508  0.73822522 -0.13710132
C  -1.25413806  1.31297437 -0.05140066
C   0.50910759 -1.93874044 -0.02436954
C  -1.15358304  2.44635641 -1.07363308
C  -0.04151548  0.41552743 -0.05583220
C  -0.43567837 -0.92058272 -0.05045120
C  -2.44285503 -1.40698307  1.35901850
C   1.85853382 -1.60553395 -0.00310691
C   3.70958873  0.03085845  0.01364242
O   4.58780472 -0.80283810  0.03134932
O   3.98376942  1.34366062  0.01313501
C   2.25796706 -0.26595508 -0.00866075
C   1.29982892  0.75576228 -0.03583220
H  -3.56590766 -1.97094627 -1.08860131
H  -2.20928222 -2.45619345  1.56713637
H  -2.19691784 -3.05249467 -0.78691509
H  -2.43089705  2.43318261  1.37583494
H  -0.67637749  2.66084363  1.55534686
H  -3.52548953 -1.26995016  1.40015558
H  -2.08889225 -1.81548585 -2.05658021
H   0.20635203 -2.98151009 -0.02100131
H   2.61343773 -2.38387364  0.01678749
H  -0.94225838  2.05191937 -2.07194540
H  -0.36553448  3.15971264 -0.80965180
H  -2.10161640  2.99084162 -1.11386469
H  -1.99414408 -0.80310446  2.14986798
H  -1.44357482  1.18071515  2.13768915
H   4.94482280  1.45537426  0.02724089
H   1.60880146  1.79521179 -0.04072546

