40
Total Energy                               R     -1.159191630260267E+03
C   2.47935088 -1.28835614 -0.18863440
C   2.69339420 -1.98987787 -1.53706004
C   3.30191920 -1.98175826  0.91650929
N   3.07886305  0.09016246 -0.32492508
O   4.10382461  0.19602213 -0.88978054
C   2.44367956  1.30696036  0.29190029
C   2.59950324  1.14458666  1.82159113
C   3.19773324  2.53057320 -0.19137373
C   0.96778669  1.26233020 -0.07009039
C   0.27174334  0.02282326  0.00857496
C   0.99404645 -1.19729914  0.11436124
C   0.32739728 -2.37303543  0.34373623
C  -1.07156071 -2.40653443  0.33773363
C  -1.77747323 -1.26132463  0.10300891
N  -3.20107555 -1.45365316 -0.18034698
O  -3.82822066 -2.22694669  0.51380106
O  -3.66696870 -0.86027617 -1.13884457
C  -1.15466161  0.00849427 -0.00761103
C  -1.79772287  1.27045153 -0.12397859
N  -3.23207883  1.43414270  0.12784142
O  -3.70459889  0.83687385  1.08030086
O  -3.86009732  2.18984003 -0.58421840
C  -1.11095330  2.43071267 -0.32978144
C   0.29137441  2.42732852 -0.30428451
H   3.75556996 -2.07485016 -1.76247580
H   2.18372898 -1.45417378 -2.33967876
H   2.27531117 -2.99253553 -1.46188583
H   4.36369634 -1.91777313  0.67605148
H   3.01926596 -3.03377870  0.92906054
H   3.11713251 -1.55507844  1.90044144
H   3.65143456  1.02445743  2.08435245
H   2.01738875  0.31594593  2.22184918
H   2.22491193  2.06921436  2.26228336
H   4.25242563  2.45040782  0.06962984
H   2.80377220  3.40776741  0.31894795
H   3.10056807  2.66691005 -1.26955892
H   0.85909918 -3.31056179  0.44389445
H  -1.58886316 -3.35287537  0.42998101
H  -1.64473708  3.36756556 -0.42527765
H   0.80448156  3.37424061 -0.39327688

