40
Total Energy                               R     -1.159505863747605E+03
C   2.49390489 -1.25157294 -0.04752359
C   2.88096819 -2.32128517 -1.08781186
C   3.06366493 -1.68810455  1.32250090
N   3.00457521  0.03037311 -0.58093354
O   4.41588824  0.02721250 -0.55454492
C   2.47694540  1.27033264  0.03147956
C   2.80338109  1.48023347  1.52970653
C   3.08133923  2.44258030 -0.75294960
C   0.96280579  1.25685832 -0.10561352
C   0.25434598  0.01797520 -0.03867367
C   0.97727888 -1.20716791  0.05562811
C   0.28709191 -2.38382530  0.24601754
C  -1.10603856 -2.42034247  0.19396826
C  -1.81056911 -1.26235515  0.00153760
N  -3.22090959 -1.43551321 -0.32122218
O  -3.85343652 -2.29114693  0.26966652
O  -3.69115270 -0.74530970 -1.21352547
C  -1.17773735  0.00720845 -0.02911466
C  -1.82940105  1.26923924 -0.03027467
N  -3.24828042  1.41373855  0.27782907
O  -3.71743804  0.70736285  1.15733145
O  -3.88690872  2.26413443 -0.31337301
C  -1.14038531  2.44347464 -0.15335126
C   0.25611485  2.43181503 -0.20204519
H   3.96370239 -2.33477271 -1.21233805
H   2.42410182 -2.10069273 -2.05618174
H   2.57204446 -3.32154665 -0.78067335
H   4.14854011 -1.57528232  1.32452321
H   2.83401583 -2.74130560  1.50217892
H   2.65329802 -1.11701985  2.15426978
H   3.85527522  1.25182391  1.71776587
H   2.18785057  0.85935588  2.18173119
H   2.62506908  2.52228336  1.80803502
H   4.16569045  2.41716236 -0.66078948
H   2.74787922  3.40581818 -0.36571203
H   2.82191754  2.38410135 -1.81376215
H   0.81400200 -3.32028009  0.37284765
H  -1.62691647 -3.36879871  0.23265994
H  -1.67428362  3.38548143 -0.14486538
H   0.76224019  3.38507499 -0.25472229

