60
Total Energy                               R     -1.593789601772786E+03
C   0.56107978 -1.60838846  1.19595900
C  -0.63748585 -1.38560627  2.12327411
C   1.48573604 -2.69687905  1.77234235
N   0.00139006 -2.10397466 -0.10145395
O  -0.98171434 -2.90820305 -0.03016479
C   0.75852004 -2.15026274 -1.37722302
C   1.39119202 -3.54254883 -1.53728150
C  -0.25903119 -1.90930847 -2.50428233
C   1.80344346 -1.05232208 -1.41651453
C   2.00070953 -0.14626563 -0.33827707
C   1.37219715 -0.33911100  0.93490574
C   1.61921267  0.62649534  1.88003134
N   1.10846735  0.56124198  3.26238206
O   1.63602707 -0.21759075  4.03308041
O   0.22840327  1.33967533  3.57258450
C   2.40684615  1.77588379  1.67103856
C   3.03677325  1.93070167  0.47751611
C   2.86739286  0.96770243 -0.54465478
C   3.56204181  1.11450174 -1.76647235
C   3.41435667  0.18320823 -2.75565894
C   2.52528117 -0.89065967 -2.57686526
H  -1.28343266 -2.25871220  2.08914366
H  -1.21537263 -0.50810481  1.82828966
H  -0.32424082 -1.28446195  3.15875974
H   0.94851911 -3.64709547  1.81787603
H   1.79522682 -2.42060489  2.78099766
H   2.38259718 -2.82289259  1.16446385
H   0.62424034 -4.31291570 -1.43767825
H   2.17263919 -3.72188914 -0.79831670
H   1.83422178 -3.63268273 -2.53058653
H  -1.06304909 -2.64356973 -2.45686739
H   0.23185990 -2.00820550 -3.47265629
H  -0.68244995 -0.90601934 -2.43432039
H   2.52177410  2.49831537  2.47043783
H   3.67499989  2.78877806  0.29849586
H   4.21589297  1.97082106 -1.89484737
H   3.95730004  0.27750516 -3.68961585
H   2.39456383 -1.58952326 -3.39508091
N  -4.13800844 -0.14799749 -0.09720170
C  -4.24945468 -1.42527782  0.66267968
C  -2.94597445 -0.20434752 -0.98983413
C  -5.36364363  0.04863778 -0.92156759
C  -3.99217396  0.98689906  0.85808292
H  -2.05696448 -0.32764431 -0.37684536
H  -4.33575007 -2.24767781 -0.04535386
H  -3.35809087 -1.54706704  1.27365832
H  -5.13423520 -1.37846807  1.29535655
H  -4.86820971  1.01288891  1.50404914
H  -3.09274355  0.83179662  1.45023398
H  -3.91416772  1.91264658  0.29159322
H  -5.45734848 -0.78903776 -1.61076090
H  -6.22815420  0.09096069 -0.26129181
H  -5.26620998  0.98112538 -1.47493377
H  -3.06096148 -1.04983060 -1.66502021
H  -2.88849947  0.72401117 -1.55377050
B  -0.64570884  2.68989543 -1.05771419
F   0.35969116  3.67932324 -1.00667398
F  -1.86781525  3.28396917 -1.44667132
F  -0.28637015  1.70708792 -2.00177399
F  -0.79463848  2.10559976  0.21399547

