60
Total Energy                               R     -1.593905611818856E+03
C  -0.67440731 -1.98658777  0.10082075
C   0.34304631 -2.42376470 -0.96974181
C  -1.61061418 -3.16947494  0.43916697
N   0.16117546 -1.51667884  1.24049232
O   0.97416660 -2.56792430  1.70626784
C  -0.52358111 -0.87548892  2.38383943
C  -1.35956952 -1.80948726  3.28862424
C   0.59192688 -0.25192671  3.24434679
C  -1.42104526  0.23350334  1.86089939
C  -1.83538248  0.26506780  0.49885982
C  -1.50656613 -0.80174093 -0.40097535
C  -1.97822840 -0.66194305 -1.68595785
N  -1.80638707 -1.69110973 -2.72579313
O  -2.41328159 -2.73897218 -2.61039366
O  -1.11562379 -1.41088758 -3.68843561
C  -2.69195632  0.45399270 -2.17101020
C  -3.00963068  1.45454770 -1.30901345
C  -2.61141383  1.37394784  0.04701655
C  -2.99018568  2.39365385  0.94952021
C  -2.63290090  2.30761678  2.26595495
C  -1.84980271  1.22755574  2.71189203
H   1.08098150 -3.06566666 -0.49479648
H   0.86010945 -1.55987555 -1.39393815
H  -0.10306772 -3.00398800 -1.77546770
H  -1.09626022 -3.85806445  1.11238703
H  -1.88593902 -3.71928431 -0.46142383
H  -2.53456183 -2.84000093  0.91603122
H  -0.78363756 -2.69396455  3.56871632
H  -2.28584751 -2.13327304  2.81473216
H  -1.63058134 -1.28132927  4.20704236
H   1.29387405 -1.02432954  3.55685707
H   0.19300463  0.21440583  4.14636883
H   1.13792424  0.50718285  2.67895080
H  -2.99504171  0.48442754 -3.21099564
H  -3.57709826  2.31484956 -1.64683104
H  -3.57520517  3.22940212  0.57918916
H  -2.93510860  3.07522671  2.97062411
H  -1.57157503  1.19888047  3.75853885
N   4.08387285 -0.33019371 -0.24824162
C   4.20063031 -1.81469579 -0.19477429
C   3.05468250  0.12041451  0.73321344
C   5.39674409  0.28610014  0.09082633
C   3.68314351  0.08657613 -1.62133008
H   2.09836456 -0.35352065  0.50739625
H   4.47612143 -2.10763924  0.81682948
H   3.24008638 -2.24994934 -0.46196277
H   4.96760266 -2.13020350 -0.90030468
H   4.44098103 -0.25624593 -2.32420427
H   2.72158628 -0.36378583 -1.85697121
H   3.60759175  1.17160394 -1.64955820
H   5.68250238 -0.02765093  1.09341995
H   6.13914617 -0.04613834 -0.63300502
H   5.29306611  1.36925420  0.05252756
H   3.38289539 -0.17313966  1.72920909
H   2.97016864  1.20373428  0.67164418
B   0.76109089  2.87804461 -0.75666679
F  -0.28781675  3.73438774 -1.15507736
F   1.99997918  3.46029064 -1.11059619
F   0.71453890  2.70066935  0.64014790
F   0.62889977  1.63685325 -1.40619105

