61
Total Energy                               R     -1.577880250413182E+03
C   0.64752578 -1.85910962 -1.46291889
C   1.28905915 -0.84850687 -2.42662456
C   0.57746229 -3.24167016 -2.13422145
N   1.53537392 -1.94369939 -0.27444957
O   2.75534361 -2.21402301 -0.51967727
C   1.04796043 -2.20213542  1.10764776
C   0.74463306 -3.70554096  1.25738415
C   2.16284122 -1.81002505  2.07893300
C  -0.22735667 -1.41158249  1.35215793
C  -1.10771740 -1.10408723  0.27287183
C  -0.73829887 -1.37036249 -1.07479705
C  -1.63915107 -1.12462659 -2.08330361
C  -2.89372710 -0.56373379 -1.81781268
C  -3.26980299 -0.25270143 -0.53343491
C  -4.63248948  0.29969588 -0.32261950
O  -5.35579546  0.06050809  0.62382290
O  -5.02748297  1.09064396 -1.32778873
C  -2.38183083 -0.51805925  0.55270200
C  -2.70005468 -0.18256870  1.89341157
C  -1.82222950 -0.45741073  2.90264244
C  -0.59454404 -1.09045191  2.63438870
H   2.28676186 -1.17936609 -2.71368258
H   1.35973443  0.13839365 -1.96652044
H   0.69102431 -0.76513699 -3.33379282
H   1.58666889 -3.60325570 -2.34043742
H   0.04379629 -3.16435924 -3.08310841
H   0.06015850 -3.97077928 -1.50976585
H   1.61630293 -4.29663883  0.96511618
H  -0.11047922 -4.00619378  0.64995048
H   0.50967340 -3.92132393  2.30187026
H   3.08464548 -2.33143967  1.82760391
H   1.89355878 -2.10200381  3.09328717
H   2.34722143 -0.73422836  2.06445832
H  -1.38431609 -1.33874942 -3.11433813
H  -3.57030876 -0.37841600 -2.64300436
H  -5.94321434  1.36389873 -1.17627702
H  -3.64192651  0.29706995  2.11857483
H  -2.07164323 -0.19451900  3.92501897
H   0.05184818 -1.32714902  3.46957364
N   4.11065018  1.52961401 -0.10361528
C   4.69587595  2.89940158 -0.09602442
C   4.30437328  0.91180574 -1.44561121
C   4.78992568  0.69125785  0.92452415
C   2.65362781  1.61663822  0.20320543
H   3.76920767  1.50373113 -2.18598342
H   5.76055041  2.82679081 -0.31109724
H   4.19881535  3.49647926 -0.85855712
H   4.54000188  3.34031369  0.88714422
H   2.53528428  2.04958577  1.19374783
H   2.17963415  2.24931300 -0.54405423
H   2.22735331  0.61648678  0.17499894
H   5.85528519  0.66317954  0.70149706
H   4.62196705  1.13446207  1.90467307
H   4.37290187 -0.31290900  0.88662182
H   5.36948866  0.89946797 -1.67188549
H   3.91498458 -0.10329013 -1.41810049
B  -0.78367661  2.83754199  0.10879040
F  -0.59804745  2.11192299 -1.08469373
F  -2.16381443  2.98558936  0.36191873
F  -0.17745803  2.15656331  1.18217149
F  -0.19087785  4.11337787 -0.02571752

