61
Total Energy                               R     -1.577994334854382E+03
C   0.73947165 -1.88652791 -1.39466597
C   1.35439865 -1.04054765 -2.52695249
C   0.59656329 -3.33940126 -1.90556266
N   1.62989104 -1.70324335 -0.22788241
O   2.88656396 -2.28656036 -0.49057639
C   1.12449507 -2.12584361  1.09688084
C   0.91186740 -3.64747080  1.27510127
C   2.16835482 -1.66843366  2.12786044
C  -0.20823415 -1.43293990  1.35341036
C  -1.07010515 -1.11432341  0.26122617
C  -0.64943187 -1.34931681 -1.07889179
C  -1.52565382 -1.09002059 -2.10799044
C  -2.79467606 -0.55047148 -1.87053284
C  -3.22423785 -0.28311573 -0.59165653
C  -4.60045786  0.23962333 -0.41805818
O  -5.34614142 -0.00409664  0.51133987
O  -4.99114721  1.01716018 -1.43850786
C  -2.36810672 -0.56810478  0.51694429
C  -2.74095279 -0.29434529  1.85741695
C  -1.89183938 -0.59637334  2.88447370
C  -0.63630884 -1.17989472  2.63392391
H   2.36421773 -1.39080839 -2.74096374
H   1.40689556  0.01201913 -2.23681503
H   0.77987081 -1.11593688 -3.45129397
H   1.57900864 -3.80940192 -1.98196508
H   0.14318267 -3.33949672 -2.90048727
H  -0.03279141 -3.95219172 -1.26041945
H   1.77558420 -4.20083676  0.89776933
H   0.01774303 -4.00385968  0.76227064
H   0.79450887 -3.88537177  2.33622221
H   3.12926507 -2.13406118  1.91342315
H   1.88758542 -1.96002511  3.14082162
H   2.29642159 -0.58360600  2.10361036
H  -1.24358579 -1.28900363 -3.13435532
H  -3.44612083 -0.35308253 -2.71327710
H  -5.91646544  1.26695905 -1.30755972
H  -3.70092303  0.15456164  2.06911359
H  -2.18524084 -0.38602794  3.90792096
H  -0.01075906 -1.42720577  3.48225393
N   4.00994383  1.61190204 -0.15250317
C   4.51699607  3.00173938  0.01632510
C   4.24376773  1.16084010 -1.55274577
C   4.72973351  0.70313330  0.78341049
C   2.54635399  1.57793401  0.14166142
H   3.69094581  1.81225634 -2.22776911
H   5.58434810  3.01593432 -0.19830060
H   3.98703222  3.65494485 -0.67480531
H   4.33640433  3.31754263  1.04241733
H   2.39764441  1.90835522  1.16750187
H   2.04495096  2.25725077 -0.54478064
H   2.18034805  0.55628138  0.00985044
H   5.79574270  0.75274467  0.56641655
H   4.53891493  1.02933108  1.80444658
H   4.36215608 -0.31053084  0.63529757
H   5.31040597  1.21769435 -1.76514373
H   3.89581186  0.13424322 -1.64865093
B  -0.85318427  2.84376077  0.19391782
F  -0.59460754  2.14734538 -1.00325605
F  -2.24742891  2.95502676  0.38337887
F  -0.28259590  2.15723562  1.28328804
F  -0.28672480  4.13628701  0.11134982

