49
Total Energy                               R     -1.121357851949864E+03
C  -1.97764540 -0.25584363  1.30432580
C  -0.67787968 -1.00058656  0.97568106
C  -1.81615111  0.51203859  2.61090683
N  -2.27755434  0.70670057  0.20768047
O  -1.76555887  1.87421699  0.27148284
C  -2.76601608  0.26870426 -1.12745338
C  -3.82087361  1.27628322 -1.60254874
C  -1.59833534  0.23745762 -2.12466825
C  -3.40996652 -1.08944249 -1.03270047
C  -3.60966674 -1.75559445  0.09727279
C  -3.15371108 -1.23266748  1.42378224
H   0.12156249 -0.29195125  0.75800622
H  -0.79362203 -1.66887379  0.12117556
H  -0.37668558 -1.60086025  1.83788885
H  -0.91585993  1.12789362  2.61525180
H  -1.73407556 -0.21050463  3.42677832
H  -2.68004120  1.15136280  2.80807754
H  -3.38776821  2.27187060 -1.71567643
H  -4.65538454  1.32977953 -0.89907838
H  -4.20940575  0.96148392 -2.57388776
H  -1.18020484  1.23679258 -2.25913807
H  -1.96508973 -0.10834034 -3.09428720
H  -0.80476853 -0.43725148 -1.79874749
H  -3.75056954 -1.49144334 -1.98329853
H  -4.12207350 -2.71329259  0.07571417
H  -2.84466576 -2.05801997  2.07148520
H  -3.99008366 -0.74006655  1.93466220
N   2.33521654  2.30360882  0.03644590
C   2.13536570  3.77971825  0.01169551
C   1.40739576  1.66396830 -0.93999264
C   3.74336822  1.98042300 -0.32790838
C   2.04534464  1.78872480  1.40520410
H   0.38606190  1.89209362 -0.64128917
H   2.34435475  4.14483860 -0.99229189
H   1.10259021  3.99432784  0.28224737
H   2.81522486  4.23784711  0.72807381
H   2.71843385  2.27517534  2.10954263
H   1.01078937  2.02128108  1.65161045
H   2.20460099  0.71240614  1.41340232
H   3.94141803  2.36208938 -1.32816334
H   4.40854725  2.45201801  0.39372964
H   3.86951877  0.89923885 -0.30630449
H   1.61295718  2.06764268 -1.93038883
H   1.57629915  0.58908136 -0.93077185
B   2.53557708 -2.37869842 -0.23595443
F   1.68060519 -3.43187369  0.14591691
F   3.77541027 -2.90472083 -0.65528528
F   1.95027116 -1.65895145 -1.29925114
F   2.74188194 -1.51757949  0.86229989

