49
Total Energy                               R     -1.121170566421059E+03
C  -2.16046490 -0.95462642 -1.15435120
C  -2.34176472  0.33874839 -1.96803163
C  -1.16186396 -1.87989717 -1.82132392
N  -1.61373437 -0.54685484  0.19126684
O  -0.49408048 -0.78873302  0.46047809
C  -2.45197975  0.19285586  1.21658084
C  -2.07184564 -0.35655914  2.59298507
C  -2.05684745  1.67557155  1.11077821
C  -3.91343369 -0.03374768  0.94099957
C  -4.39154766 -0.87324316  0.03403036
C  -3.50609800 -1.64849558 -0.88961905
H  -1.41806691  0.91664178 -1.99420396
H  -3.15451681  0.95962681 -1.59475107
H  -2.58776411  0.02539291 -2.98410911
H  -0.23868316 -1.36038644 -2.07991105
H  -1.62149684 -2.24057549 -2.74293436
H  -0.92889583 -2.74106838 -1.19225915
H  -1.03421988 -0.13166565  2.83961615
H  -2.24069846 -1.43364726  2.64720115
H  -2.71488670  0.13247226  3.32601326
H  -0.99265112  1.79847671  1.31102934
H  -2.62251557  2.20429509  1.88003740
H  -2.30304352  2.10559053  0.14140061
H  -4.56960245  0.52763814  1.59842633
H  -5.46337989 -1.01251338 -0.05954218
H  -3.98055720 -1.77128668 -1.86591089
H  -3.33120886 -2.65609560 -0.49757893
N   3.37444704 -1.44569963  0.25809794
C   2.40432836 -1.64307977 -0.85728862
C   4.30273390 -0.33146176 -0.08661016
C   2.63505712 -1.10337499  1.50703735
C   4.15390433 -2.69792411  0.46735971
H   4.84138079 -0.59406074 -0.99556846
H   1.85271777 -0.71716453 -1.00360562
H   2.95957808 -1.89819550 -1.75851548
H   1.72710077 -2.45284841 -0.59208837
H   3.46428092 -3.50147256  0.71961925
H   4.68757740 -2.93585203 -0.45117673
H   4.85939471 -2.53991310  1.28114247
H   2.08425682 -0.17942684  1.34403475
H   1.95300345 -1.91787031  1.74386596
H   3.35646563 -0.97218588  2.31209384
H   3.71997025  0.57420030 -0.24363584
H   5.00091944 -0.19203017  0.73713764
B   1.30926875  2.39644416 -0.37085357
F   0.74340197  1.30745071 -1.06884343
F   0.47307352  3.52200428 -0.50130813
F   1.44022540  2.06152965  0.99355843
F   2.58060854  2.68355458 -0.90743093

