29
Total Energy                               R     -9.047484791341788E+02
C   1.55929139 -1.26592959 -0.09886462
C   2.51814814 -1.82807009  0.96345443
C   0.43585230 -2.22111877 -0.44430637
N   1.01503798 -0.00957769  0.49542289
O   0.16662614  0.04152509  1.29993179
C   1.70604340  1.21785482 -0.08952794
C   0.66619070  1.92372164 -0.95081724
C   2.26097749  2.06594137  1.03062640
O   2.73697317  0.62286630 -0.82784571
C   2.30537035 -0.66010384 -1.28978004
H   1.96857540 -2.07656871  1.87240771
H   3.31870073 -1.12534004  1.19858657
H   2.95485003 -2.73639552  0.54598867
H  -0.06836721 -2.57152523  0.45679888
H   0.87944152 -3.08055332 -0.95040923
H  -0.28823522 -1.75220566 -1.11120565
H  -0.15199895  2.28963293 -0.33039271
H   0.26662749  1.27136363 -1.72713380
H   1.16975786  2.77096064 -1.41873272
H   1.44978572  2.44560346  1.65246641
H   2.78279009  2.91125580  0.58019264
H   2.96040180  1.49104778  1.63864434
H   3.19098591 -1.23451246 -1.54848967
H   1.65319025 -0.56247650 -2.16147564
B  -2.95332367  0.03202237 -0.01585505
F  -2.74844948 -1.15658679  0.71465362
F  -2.11803171  0.03763969 -1.15203546
F  -4.30146599  0.10442311 -0.42613500
F  -2.65040727  1.14316186  0.79825826

