41
Total Energy                               R     -6.945348752493146E+02
C  -1.67736273  1.27655801 -0.08781175
C  -2.60714331  1.99950259  0.88650324
C  -0.46030129  2.11911988 -0.43144059
N  -1.28108467 -0.02278106  0.48894460
O  -0.51242311 -0.14924785  1.48726327
C  -2.04082948 -1.15865572 -0.08741944
C  -1.11091055 -2.05145596 -0.89698368
C  -2.78580780 -1.91635461  0.99173737
O  -2.97778713 -0.49244714 -0.91956135
C  -2.41607552  0.75899744 -1.32184376
H  -2.09422852  2.18496126  1.83351705
H  -3.50519749  1.40992753  1.08626631
H  -2.90812172  2.96084421  0.46328467
H   0.07583687  2.41257900  0.47371834
H  -0.78366284  3.02953249 -0.94235794
H   0.22409161  1.58031468 -1.09023901
H  -0.33688416 -2.47344103 -0.25228853
H  -0.63037238 -1.48956648 -1.70108638
H  -1.68582800 -2.87194184 -1.33165748
H  -2.08027089 -2.40168150  1.66833013
H  -3.40552649 -2.68759137  0.52972495
H  -3.42350060 -1.23976063  1.56408318
H  -3.23466955  1.40659794 -1.63117951
H  -1.72682020  0.61332148 -2.16045328
N   3.28006153 -0.07733433 -0.01813287
C   2.89590884  0.62981339  1.23676184
C   3.53074597  0.92338812 -1.09376139
C   4.51540852 -0.87666310  0.21781350
C   2.17290582 -0.98433758 -0.43443386
H   2.62004298  1.49830916 -1.25428856
H   3.71763091  1.27808180  1.53633247
H   2.00216755  1.21974616  1.04520327
H   2.69910923 -0.11032639  2.01014467
H   1.98218751 -1.69398198  0.36827495
H   1.28833315 -0.38309219 -0.62474401
H   2.47207361 -1.50935591 -1.34012153
H   5.31653945 -0.20342525  0.51757879
H   4.31805491 -1.59983447  1.00707561
H   4.78105663 -1.39054429 -0.70435860
H   4.33977107  1.58016741 -0.77839812
H   3.80780044  0.39505312 -2.00438769

