58
Total Energy                               R     -1.612655407661528E+03
C   0.95316236 -0.55569050 -1.63733724
C   2.16485099 -1.49694156 -1.64548212
C   0.38536543 -0.33821355 -3.03766995
N   1.42236028  0.75928601 -1.09960987
O   2.15839180  1.45957740 -1.68214155
C   0.88390572  1.10620033  0.27392338
C   2.10358007  1.01143405  1.20437218
C   0.31382853  2.51967453  0.17124518
C  -0.12214873 -0.01221369  0.46053118
C  -0.06732847 -0.91382632 -0.59751586
C  -0.89447257 -2.01845978 -0.67467550
C  -1.82163184 -2.22386191  0.33982812
C  -2.76306180 -3.37525401  0.31869165
O  -3.61769503 -3.56582179  1.15779386
O  -2.57703936 -4.18514426 -0.72243277
C  -1.90098318 -1.32657242  1.39839973
C  -1.05587135 -0.22212916  1.48562817
C  -1.18900770  0.67249435  2.67193855
O  -0.35978800  1.47735558  3.03317008
O  -2.33587232  0.49066979  3.32599277
H   2.91615501 -1.13535599 -2.34816868
H   1.80629442 -2.47392762 -1.97363782
H   2.60164074 -1.59206440 -0.65172928
H   1.16430791  0.02242759 -3.71035839
H  -0.44929054  0.36361025 -3.02359258
H   0.02985052 -1.30352481 -3.40054974
H   2.85615039  1.73533422  0.89133959
H   2.52939384  0.00805574  1.19167564
H   1.76866313  1.24763621  2.21108357
H   1.11130219  3.21758470 -0.08660694
H  -0.09384796  2.80168367  1.13878074
H  -0.47450388  2.57438320 -0.58110621
H  -0.82234882 -2.69828967 -1.51480429
H  -3.21026298 -4.91601587 -0.68295164
H  -2.63284913 -1.49898265  2.17558006
H  -2.35632082  1.07374045  4.09788408
N  -3.91278425  1.83047225 -0.96576828
C  -5.34256936  1.46366910 -1.16789251
C  -3.04053657  0.76516614 -1.53596043
C  -3.62332181  3.12247026 -1.64919387
C  -3.63793503  1.96958128  0.49214775
H  -3.25910357 -0.17316763 -1.03017572
H  -5.52890970  1.35729781 -2.23520903
H  -5.53606465  0.52206946 -0.65682782
H  -5.96850599  2.25182549 -0.75316581
H  -4.29386707  2.73713613  0.89920957
H  -3.83135105  1.01395262  0.97526486
H  -2.59697589  2.25966301  0.62326710
H  -3.83711167  3.01252883 -2.71095611
H  -4.25382699  3.89698339 -1.21596191
H  -2.57252721  3.36626113 -1.50034927
H  -3.24807410  0.67647703 -2.60091449
H  -2.00346668  1.04946918 -1.37749510
B   5.44750171 -0.09269001  0.24837881
F   4.77296472  0.51929641 -0.82807366
F   4.72790206 -1.22800472  0.67740571
F   6.73543834 -0.48718863 -0.17134699
F   5.55947101  0.82257410  1.31549262

