58
Total Energy                               R     -1.612959498654690E+03
C   0.12778477 -1.53119579  1.72501931
C   0.48370706 -2.16143710  3.07079357
C  -1.01586468 -0.52455106  1.94587062
N  -0.12852788 -2.60012293  0.72924975
O  -1.41124197 -3.15747531  0.81226839
C   0.22331398 -2.09683605 -0.63463065
C   0.63556555 -3.29612463 -1.48833397
C  -0.90146315 -1.32050485 -1.34557106
C   1.37214332 -1.17269536 -0.28076631
C   1.30651414 -0.85340342  1.07551785
C   2.23335166 -0.02025218  1.67088233
C   3.27944447  0.49048416  0.89796039
C   4.31013154  1.38725102  1.47150839
O   5.23752606  1.85838107  0.84246986
O   4.13105217  1.64240798  2.77098149
C   3.37608745  0.15314392 -0.44833440
C   2.41935005 -0.66227792 -1.05011139
C   2.61696398 -0.94069049 -2.50176176
O   3.65261717 -1.36906445 -2.96767515
O   1.56595206 -0.62339677 -3.25141592
H  -0.35755768 -2.75624286  3.43819664
H   0.70159661 -1.39542436  3.82103115
H   1.35566195 -2.81467818  2.98129372
H  -1.87989375 -1.02263417  2.39245971
H  -1.33652054 -0.04547510  1.02129549
H  -0.68711047  0.26097136  2.63275529
H  -0.19731865 -4.00312705 -1.54170728
H   1.49427851 -3.81215366 -1.05114913
H   0.88396282 -3.00927628 -2.51258705
H  -1.84631047 -1.85509640 -1.22662839
H  -0.69085633 -1.22914533 -2.41130637
H  -1.02096585 -0.31359661 -0.94783398
H   2.15398931  0.22510376  2.72349860
H   4.83438716  2.22947662  3.08141910
H   4.19681664  0.54224530 -1.04002862
H   1.75148093 -0.83396439 -4.17817676
N  -4.81252025  0.18570052  0.19326703
C  -4.48321352 -1.25588300  0.38008341
C  -6.24637488  0.32228424 -0.18485479
C  -4.55919321  0.92187696  1.46430277
C  -3.95319946  0.75542987 -0.88311463
H  -6.41171466 -0.20562269 -1.12255472
H  -5.10359088 -1.65424998  1.18136581
H  -4.68744874 -1.78330657 -0.55031694
H  -3.43085744 -1.34838739  0.63941131
H  -2.91697570  0.68977600 -0.56739765
H  -4.10968884  0.18407393 -1.79657280
H  -4.23155238  1.79643238 -1.03536609
H  -5.20218644  0.51044302  2.24055663
H  -3.51335910  0.79828884  1.73846102
H  -4.78468454  1.97554662  1.30843336
H  -6.85897238 -0.11209186  0.60335735
H  -6.47943458  1.37917091 -0.30279773
B  -0.72657520  2.88837831 -0.75424352
F   0.49257656  2.24862306 -0.45768320
F  -1.31003822  2.29051433 -1.89065022
F  -1.60056084  2.77072077  0.34696910
F  -0.48892192  4.25541734 -1.01700223

