59
Total Energy                               R     -1.341794196999690E+03
C   1.24654374  0.98665616  1.72036901
C   2.37113655  0.21750472  2.40217694
C   0.70565204  2.05255276  2.69480702
N   1.78225882  1.64928101  0.50410738
O   3.02059225  1.93470876  0.45424856
C   0.90285729  2.34074922 -0.47024957
C   0.93993073  3.84977656 -0.18334316
C   1.46521663  2.06280584 -1.87466825
C  -0.50768120  1.76881331 -0.42565805
C  -0.81858762  0.58921464  0.30845077
C   0.09810405  0.09233413  1.28370554
C  -0.14851802 -1.10491346  1.89805827
C  -1.27918887 -1.86197605  1.54995814
C  -2.21190628 -1.38560688  0.66532202
C  -3.26614205 -2.36844496  0.27661192
O  -3.85208841 -3.07501510  1.06422478
O  -3.50793513 -2.52805944 -1.03557943
C  -2.05499979 -0.08439400  0.08584758
C  -3.04520704  0.58068875 -0.70140044
C  -4.47455132  0.17282467 -0.78715635
O  -5.16681803  0.31245739 -1.77294217
O  -4.95107937 -0.29670115  0.36720776
C  -2.73626577  1.75764607 -1.34107760
C  -1.46329205  2.32822114 -1.23771396
H   3.19974613  0.88440302  2.63403780
H   2.73743945 -0.60004636  1.78007468
H   2.01161428 -0.19740297  3.34378039
H   1.49406853  2.77077582  2.93264809
H   0.38821626  1.56229179  3.61761827
H  -0.15218479  2.58952651  2.28729072
H   1.97592674  4.19314690 -0.18476293
H   0.48918722  4.09204406  0.77953230
H   0.40525579  4.39571128 -0.96160250
H   2.50829086  2.37433807 -1.93560575
H   0.89531825  2.62604787 -2.61484875
H   1.39239766  1.00104486 -2.11881282
H   0.52355904 -1.50143392  2.64709112
H  -1.40661747 -2.84918648  1.97923035
H  -2.88156498 -2.05678335 -1.60056297
H  -5.87769051 -0.55538639  0.25871977
H  -3.49617165  2.26013213 -1.92810050
H  -1.24900316  3.22108664 -1.81231231
N   4.32224759 -1.82565941 -0.93883530
C   5.21861657 -0.90912853 -0.17743667
C   3.11484702 -1.07791401 -1.39138102
C   5.05018633 -2.35466673 -2.12728650
C   3.90783371 -2.96002067 -0.06564794
H   2.57354212 -0.72310405 -0.51684718
H   5.49867288 -0.07914649 -0.82349552
H   4.68590468 -0.53990977  0.69604236
H   6.10361615 -1.46427118  0.12902291
H   4.79825750 -3.49845403  0.25468738
H   3.37864706 -2.56280955  0.79828526
H   3.25458999 -3.61892419 -0.63511835
H   5.34657259 -1.51790314 -2.75738427
H   5.92980864 -2.89731607 -1.78529407
H   4.38644681 -3.02123868 -2.67513366
H   3.43951642 -0.23824297 -2.00246351
H   2.48621436 -1.74980037 -1.97362303

