38
Total Energy                               R     -9.550218749482094E+02
C   0.80796451 -1.67884448  0.07432753
C   0.42453865 -2.94318414 -0.70800279
C   0.93862845 -2.05966166  1.56718025
N   2.03665556 -1.14029659 -0.56212602
O   3.07714778 -2.09296799 -0.48251966
C   2.53611337  0.17646056 -0.08937562
C   3.23713005  0.16626310  1.28759638
C   3.56289397  0.63781686 -1.13998841
C   1.39181277  1.18000877 -0.04053004
C   0.03803051  0.74968430 -0.04531659
C  -0.29656276 -0.63820985 -0.03735201
C  -1.61573797 -1.00854738 -0.03820038
C  -2.62434514 -0.02569232 -0.04717899
N  -4.01840338 -0.45740469 -0.05591696
O  -4.25536876 -1.65478354 -0.09538331
O  -4.89668679  0.39076444 -0.02385302
C  -2.35292028  1.31167850 -0.03621676
C  -1.00340487  1.72488971 -0.02463926
C  -0.68526633  3.10291557  0.02728745
C   0.62415778  3.49332679  0.07310298
C   1.65251313  2.53111374  0.03727216
H   1.22723748 -3.67667195 -0.64613786
H   0.24735877 -2.71293035 -1.76248336
H  -0.47244006 -3.41295078 -0.30171460
H   1.85273504 -2.63365327  1.73561080
H   0.08898933 -2.67897944  1.86803763
H   0.94942377 -1.18550281  2.21904876
H   3.96253602 -0.64776212  1.33546817
H   2.53720321  0.05787048  2.11584380
H   3.77383222  1.10737094  1.43508573
H   4.37253013 -0.08889227 -1.21327913
H   4.00938053  1.59840145 -0.87753333
H   3.09399261  0.73359154 -2.12324880
H  -1.90763203 -2.04793156 -0.01559178
H  -3.14509228  2.04969436 -0.03044896
H  -1.49097307  3.82966968  0.04125773
H   0.88219158  4.54539751  0.12923670
H   2.67694869  2.88297579  0.07140194

