38
Total Energy                               R     -9.547135922891780E+02
C  -1.43062771  1.18596419 -0.02959333
C  -0.57144855 -2.29565375 -1.68839556
C  -1.73132456  2.51322069 -0.20300151
N  -2.16574066 -1.11566546 -0.26748528
O  -3.02869261 -1.73670773 -0.77027072
C  -0.76915590 -1.70397523 -0.28595849
C  -3.91956040  0.56552859  0.04784264
C  -0.78329596 -2.82380054  0.77188162
C  -2.49535862  0.19327823  0.40970435
C   0.26406720 -0.62183321 -0.02969970
C  -0.07997248  0.75641466 -0.07524724
C  -0.70822773  3.47142199 -0.36938953
C   0.60502368  3.09668101 -0.32042580
N   3.96906446 -0.42604714  0.18723219
O   4.19477676 -1.59761183  0.43805646
O   4.84452759  0.40850647  0.03719368
C   2.29760445  1.32497354 -0.08694216
C   0.94868265  1.73062882 -0.16590272
C   2.57377358 -0.00365093  0.06615666
C   1.57654803 -0.99483668  0.07205027
C  -2.37338327 -0.06991027  1.92714434
H  -1.30449587 -3.07614051 -1.88840363
H   0.42280801 -2.73953477 -1.72478650
H  -0.63776179 -1.51812731 -2.45147142
H  -4.03315745  0.73907129 -1.02353504
H  -0.97774298  4.51295975 -0.49991879
H  -2.75823968  2.85455481 -0.17786545
H  -4.61102140 -0.21517644  0.36356345
H  -4.18568215  1.47429424  0.58551585
H  -3.02550210 -0.89079921  2.22949017
H  -1.60478117 -3.51182604  0.56912616
H  -0.86620731 -2.43459483  1.78515127
H   0.15307885 -3.37426336  0.67981407
H   1.39960746  3.83080690 -0.39836648
H   3.08803118  2.06337484 -0.13410676
H   1.86731695 -2.03602565  0.10747353
H  -2.70418145  0.84611818  2.41864773
H  -1.35029609 -0.27290567  2.24026520

