38
Total Energy                               R     -9.549062591635868E+02
C   1.40590090  1.19154402 -0.03334907
C   3.14500857  0.20188029  1.46035340
C   3.65536267  0.57725770 -0.97494623
N   2.10644296 -1.16502313 -0.30466096
O   3.03021785 -2.02805450 -0.46307122
C   0.75899886 -1.72206159 -0.01119911
C   2.56284375  0.20986254  0.03631098
C   0.78569554 -2.38348578  1.37729693
C  -0.29379233 -0.62717945 -0.03899791
C   0.05512478  0.75431247 -0.05380188
C   1.67102492  2.54173036 -0.00788667
C   0.64401245  3.50495743 -0.02871108
C  -0.66370924  3.11152098 -0.06237167
N  -4.01324700 -0.43238606  0.01269785
O  -4.25313270 -1.62687522  0.08141345
O  -4.88478224  0.42039954 -0.03135955
C  -2.33490695  1.32753305 -0.05534218
C  -0.98414530  1.73302356 -0.06460273
C  -2.61585684 -0.00701637 -0.01760986
C  -1.61404131 -0.99253670 -0.00568713
C   0.46960785 -2.77448912 -1.08936235
H   3.59774185  1.17297858  1.67162756
H   2.37103963  0.01753558  2.20736262
H   0.90278058  4.55774706 -0.01424433
H   4.06441404  1.56166389 -0.75010197
H   2.69499746  2.89234482  0.03938824
H   3.25764966  0.59012397 -1.99237501
H   4.47497241 -0.13829873 -0.92455383
H   0.43723562 -2.31797650 -2.08129122
H   1.23722197 -3.54721334 -1.07966144
H   3.91613763 -0.56671111  1.54734731
H   1.59274230 -3.11740956  1.42563645
H   0.92668801 -1.64670786  2.16961772
H  -1.46979929  3.83746987 -0.07580551
H  -3.12176054  2.07106171 -0.06585538
H  -1.90701286 -2.03203888  0.03515423
H  -0.16085886 -2.89853362  1.55377531
H  -0.48775449 -3.25905062 -0.89870101

