47
Total Energy                               R     -7.732725981850231E+02
C  -1.57970428  1.37582555 -0.13716566
C  -0.86179597  2.56964000 -0.77654077
C  -2.98273118  1.89309908  0.23239627
N  -1.63841261  0.26157770 -1.13893810
O  -0.31889691  0.06023269 -1.64407009
C  -2.12302261 -1.04062895 -0.57596637
C  -3.63806172 -1.02045229 -0.29870197
C  -1.91681244 -2.13575709 -1.62845689
C  -1.35768752 -1.43707233  0.70474903
C  -1.32870422 -0.32988442  1.74823760
O  -0.54181555 -0.71422731  2.88761391
C  -0.81290864  0.96528337  1.13873252
H  -1.37240614  2.88136041 -1.69427165
H   0.17529656  2.35027304 -1.02117446
H  -0.87442611  3.41761578 -0.08502025
H  -3.61414557  1.97552754 -0.65639223
H  -2.89148978  2.89234992  0.66724258
H  -3.50937321  1.28598744  0.96521334
H  -4.17659374 -0.52808360 -1.11288951
H  -3.91919942 -0.53605963  0.63355630
H  -4.00338269 -2.04926580 -0.23448262
H  -2.44272319 -1.88473458 -2.55603865
H  -2.32738747 -3.08028142 -1.25872212
H  -0.86618179 -2.29588460 -1.86456940
H  -0.32336477 -1.68439780  0.43918491
H  -1.80425268 -2.34037482  1.13481398
H  -2.32694628 -0.17938409  2.16545294
H   0.36187780 -0.86632801  2.59234088
H   0.24598729  0.82917746  0.89238901
H  -0.87211443  1.77223627  1.87748405
N   3.54919221 -0.08267251 -0.12190363
C   2.72172883 -0.82346155  0.87257190
C   3.74561313 -0.93394749 -1.32974101
C   2.84578052  1.17203264 -0.51445964
C   4.87177595  0.25058821  0.47793388
H   4.25509212 -1.84941889 -1.03405477
H   1.76387182 -1.06187268  0.41367473
H   3.24507330 -1.73661902  1.15130200
H   2.57631965 -0.19100551  1.74664926
H   4.70968926  0.87139984  1.35740747
H   5.37289455 -0.67444247  0.75803088
H   5.46384355  0.79065331 -0.25879352
H   1.88733192  0.90267998 -0.95627325
H   2.69564927  1.78184222  0.37480577
H   3.46278672  1.70488225 -1.23639695
H   2.76954097 -1.16547386 -1.75354391
H   4.34815581 -0.38432654 -2.05091657

