35
Total Energy                               R     -9.833902827817701E+02
C   1.70980673 -1.25625007 -0.32119124
C   1.52419394 -2.14744330 -1.54034955
C   3.08265436 -1.52238663  0.32374993
N   1.74352143  0.18538141 -0.80773950
O   2.06969217  0.38849845 -1.92113882
C   1.44301600  1.38435299  0.08066618
C   2.76575256  1.72995464  0.78865972
C   1.02492197  2.53272044 -0.82633859
C   0.31830744  1.02384616  1.05502856
C   0.45322516 -0.33638156  1.72481422
O  -0.65644724 -0.57701970  2.57859212
C   0.55096158 -1.42415225  0.66468606
H   2.39505035 -2.13187574 -2.19572338
H   0.63532494 -1.86420592 -2.10772002
H   1.38884968 -3.16638492 -1.17442278
H   3.89413655 -1.20499856 -0.33303809
H   3.14918023 -2.60324022  0.45926565
H   3.19367950 -1.05212914  1.29807944
H   3.57850283  1.83085210  0.06735768
H   3.04643439  1.01084873  1.55456535
H   2.60837387  2.69637767  1.27072348
H   1.84762873  2.88561638 -1.44808578
H   0.70792774  3.35214345 -0.17930498
H   0.18218418  2.25051483 -1.46064625
H  -0.63133669  1.05303154  0.51494190
H   0.29248031  1.81543120  1.80717543
H   1.32603411 -0.35586734  2.37954480
H  -1.46051594 -0.59597904  2.03919603
H  -0.38657153 -1.44864782  0.10230484
H   0.68304907 -2.40063407  1.13600092
B  -3.10393844  0.01086724 -0.37558087
F  -2.07130894 -0.32931816 -1.26909559
F  -4.34759744 -0.33877391 -0.92794090
F  -2.92338746 -0.70291984  0.84323472
F  -3.06641372  1.39098396 -0.10798840

