52
Total Energy                               R     -1.235796200529444E+03
C   1.81121374 -1.30500503  0.01763762
C   1.70937541 -2.75577013  0.48842569
C   0.87956450 -1.12371553 -1.19444074
N   1.56447729 -0.39383860  1.16972437
O   0.20306320 -0.15578316  1.42077172
C   2.36760349  0.84925508  1.00251264
C   2.78365238  1.37336533  2.37743930
C   1.67306311  1.99128830  0.24062764
C   3.53505024  0.32392585  0.20400217
C   3.21876657 -0.90941816 -0.35489827
C   4.13317635 -1.57860329 -1.15723876
C   5.37659339 -0.99354287 -1.39612082
C   5.69351710  0.24359761 -0.83639530
C   4.77143300  0.91076565 -0.03001994
H   0.69886114 -2.96389458  0.85328288
H   2.41597027 -2.95583896  1.29841513
H   1.91714065 -3.45275817 -0.32944629
H  -0.15765480 -1.33654738 -0.92571339
H   1.17247753 -1.82289331 -1.98366676
H   0.92680562 -0.11664711 -1.61160146
H   1.89806721  1.63611138  2.96449254
H   3.40209014  2.27195312  2.28823128
H   3.35071289  0.61881963  2.92910342
H   0.78125484  2.32471029  0.77662120
H   1.37823155  1.70328873 -0.76966519
H   2.35466356  2.84330793  0.15730027
H   3.88821483 -2.54224621 -1.59491739
H   6.10288705 -1.50444061 -2.02046488
H   6.66473027  0.68883260 -1.02828004
H   5.02140556  1.87408777  0.40551214
N  -2.62443440  2.25666855 -0.53674648
C  -3.99208588  2.31381667 -1.12340047
C  -1.94305161  3.56752911 -0.72753568
C  -2.71939943  1.95481022  0.92032279
C  -1.83732928  1.18553852 -1.21221910
H  -1.89267753  3.78391838 -1.79342689
H  -4.55193056  3.10847848 -0.63309578
H  -3.90689417  2.51727325 -2.18952825
H  -4.48031465  1.35478656 -0.96153553
H  -2.36929243  0.24303632 -1.10457741
H  -1.73118312  1.44174857 -2.26520262
H  -0.86519682  1.12260924 -0.73168988
H  -3.30384687  2.73835082  1.40009665
H  -3.20684744  0.99044544  1.04557510
H  -1.71358700  1.92477349  1.33601103
H  -2.51573997  4.33831570 -0.21446970
H  -0.93947022  3.50352963 -0.31033946
B  -4.12814092 -1.76686531  0.14502677
F  -4.67115554 -3.04573037  0.38688628
F  -4.08071198 -1.53242041 -1.24611182
F  -4.94065692 -0.78812737  0.75630244
F  -2.82634636 -1.69809438  0.67832686

