57
Total Energy                               R     -1.499751604192227E+03
C   2.53243504  0.82227848 -0.29150246
C   2.01646379  1.74620862 -1.39615573
C   3.90282327  1.31605578  0.19245157
N   1.55917722  0.90670447  0.84688651
O   1.19945152  2.08584909  1.16980897
C   1.39207926 -0.12852248  1.90844908
C   2.49464529  0.05168029  2.96366246
C   0.03532377  0.08026157  2.58533986
C   1.48841086 -1.54963447  1.30541521
C   0.17889541 -2.05560818  0.73149330
O  -0.39456436 -3.04122519  1.15510436
O  -0.28832678 -1.34232529 -0.28183189
C   2.64028565 -1.67927273  0.30416134
C   2.56338008 -0.64242107 -0.81360344
C   3.71534600 -0.85766296 -1.77213789
O   4.83321598 -1.20099916 -1.45217086
O   3.37146344 -0.65389466 -3.04626220
H   2.01000949  2.78467403 -1.06673165
H   1.00630216  1.46657168 -1.70475755
H   2.67242510  1.67574229 -2.26479647
H   3.78087762  2.25083370  0.74310024
H   4.54811826  1.51567470 -0.66587543
H   4.40982837  0.59572874  0.83445596
H   2.53957476  1.09621678  3.27894386
H   3.47920109 -0.24556663  2.60316330
H   2.25611701 -0.56006563  3.83671785
H   0.02232878  1.00189344  3.16647205
H  -0.14157098 -0.75197977  3.27117032
H  -0.78550481  0.11504417  1.86759007
H   1.69522158 -2.21899309  2.14159626
H  -1.15025850 -1.69240782 -0.58606877
H   2.63628033 -2.68273169 -0.12878506
H   3.58127103 -1.57824566  0.84744519
H   1.64946249 -0.79597644 -1.38573543
H   4.14133963 -0.79452974 -3.61612239
N  -2.28014390  2.69212582 -0.27772036
C  -1.43423543  3.62722247 -1.07148254
C  -1.83183043  1.29318793 -0.52484082
C  -2.13801431  3.00292876  1.17388898
C  -3.70641557  2.83829805 -0.68110746
H  -1.95474277  1.06574114 -1.58239243
H  -0.39940481  3.51722357 -0.75182137
H  -1.53068918  3.37580764 -2.12641715
H  -1.77611187  4.64558775 -0.89415323
H  -4.01827818  3.86555244 -0.49999874
H  -3.79740622  2.59831602 -1.73905984
H  -4.30923569  2.15312960 -0.08809813
H  -1.09261192  2.88652214  1.45345971
H  -2.46515080  4.02749786  1.34392777
H  -2.75905163  2.31093515  1.74035691
H  -0.78772248  1.21420471 -0.24056377
H  -2.43712058  0.62352493  0.08046588
B  -3.89083458 -1.76872785 -0.47657250
F  -4.71480625 -2.90150968 -0.43882145
F  -3.49820640 -1.40777068  0.82411869
F  -2.71630023 -2.07733166 -1.23689356
F  -4.55846844 -0.70042549 -1.09397748

