29
Total Energy                               R     -5.000191136178838E+02
C   0.94581715 -0.92946264  0.41907555
C   1.53308298  1.47727724  1.11256531
C  -0.32247316 -1.51230311 -0.19305914
N   2.16140758 -1.63995162 -0.04707405
O  -0.96801266  1.89512687 -0.21934451
C  -1.37342316 -0.42050297 -0.00567893
C  -2.45070861 -0.37241539 -1.07270247
C  -1.96558892 -0.39466565  1.41500075
C   0.95479716  0.56517368  0.04328110
N  -0.52511893  0.81841504 -0.08340210
C   1.53537597  0.86586626 -1.34587093
H   2.14648092 -2.60368111  0.29154902
H   0.94212908 -1.03022073  1.50308549
H   3.01124239 -1.20161243  0.31456101
H  -0.62540915 -2.43481107  0.29927468
H   2.23142889 -1.67597789 -1.06597697
H  -0.17590913 -1.70873283 -1.25852406
H  -3.00746676 -1.30936854 -1.01664670
H   1.14040965  0.19649475 -2.11321466
H  -2.01217529 -0.28480855 -2.06817622
H  -2.55436411 -1.30621650  1.52600963
H  -3.14189852  0.45277665 -0.89887856
H  -2.61529528  0.47311425  1.53423129
H   1.30792829  1.89714915 -1.61614438
H  -1.19445414 -0.37891182  2.18737623
H   1.46469914  2.52214332  0.80890795
H   1.02453236  1.33346314  2.06721388
H   2.58679147  1.21645223  1.23117024
H   2.62013449  0.75868445 -1.29339622

