29
Total Energy                               R     -5.002120145590837E+02
C  -0.55500685  1.10702254  1.02786322
C   0.93203238  0.95264228  0.69562939
C   1.24825298 -1.46586713  1.26041052
N   1.37103083  2.01066778 -0.27116867
O  -0.50457605 -1.64544921 -1.24978978
C  -1.33856746  0.18378897  0.07413941
C  -2.32769566 -0.70707720  0.82253690
C  -2.05109458  0.93864307 -1.04668366
C   2.17954674 -0.64572073 -0.91535378
N  -0.25535866 -0.64824433 -0.50703534
C   1.07448040 -0.46127446  0.11513452
H   1.20013890  2.93528532  0.12432988
H   0.87082526  1.96133399 -1.16044175
H   2.36858445  1.94314960 -0.47442226
H  -0.88168744  2.14521693  0.94908522
H   1.56561617  1.08368583  1.56950592
H  -0.70584426  0.79708246  2.06221791
H  -3.07857403 -0.08143246  1.31144922
H   0.51240290 -1.31496272  2.05285682
H  -1.82235998 -1.30128143  1.58746119
H  -2.84944882  1.55128670 -0.62149201
H  -2.84064121 -1.38168574  0.13339693
H  -2.49747969  0.23752075 -1.75588865
H   1.13966194 -2.48169483  0.87493696
H  -1.36898452  1.59616423 -1.59181780
H   2.23733363 -1.69392924 -1.21186899
H   2.01707963 -0.05240909 -1.81813708
H   3.14145340 -0.36808674 -0.47717382
H   2.24713915 -1.36155800  1.68968939

