66
Total Energy                               R     -1.468503309049006E+03
C  -1.29860940 -1.28335628 -0.99611567
C  -0.17670019 -2.17676921 -1.58003929
C  -0.19260671 -2.38145848 -3.09523314
C  -2.64869970 -1.86905972 -1.47939033
C  -2.85595988 -3.36380274 -1.23574660
N  -1.18353205 -1.30705615  0.50775329
O   0.19847627 -1.14466847  0.83900460
C  -1.95233527 -0.22976252  1.23677935
C  -3.48440127 -0.45507879  1.27206570
C  -3.97593058 -1.77604587  1.85008437
C  -1.45431743 -0.22560410  2.70647015
C  -2.25628998  0.60893323  3.70554127
C  -1.69180717  1.16432466  0.62966920
C  -1.95632684  1.19119249 -0.87879677
C  -1.77707302  2.59348935 -1.40560628
O  -2.27025460  3.58033397 -0.89095477
O  -1.04838233  2.68610622 -2.52114860
C  -1.09792427  0.13851979 -1.56916008
H  -0.20946826 -3.15285689 -1.08408070
H   0.78087592 -1.73836012 -1.31244189
H  -1.09159754 -2.88549520 -3.45908224
H   0.66221041 -3.00000368 -3.38694879
H  -0.10113844 -1.43646483 -3.63833171
H  -2.71651778 -1.68135887 -2.55651073
H  -3.48662251 -1.32585398 -1.05357120
H  -2.25432056 -3.97966530 -1.90962036
H  -3.90360760 -3.63499280 -1.39879330
H  -2.59598407 -3.65312469 -0.21592812
H  -3.93534987 -0.30385453  0.29337242
H  -3.89608097  0.35901843  1.87595998
H  -3.66296823 -2.63108851  1.25069775
H  -5.06985247 -1.78542049  1.89088094
H  -3.61169218 -1.93752804  2.86885125
H  -0.42532627  0.13131716  2.71543655
H  -1.41546623 -1.26096171  3.06139530
H  -2.39999566  1.63940226  3.36636242
H  -1.71480971  0.65725684  4.65551402
H  -3.24250922  0.18927939  3.92129913
H  -0.64789631  1.44419577  0.80051979
H  -2.31178165  1.90951035  1.13330185
H  -3.01879980  0.98477458 -1.06275392
H  -0.99417730  3.61521377 -2.78619032
H  -0.04672581  0.41614477 -1.44554335
H  -1.30271197  0.13058432 -2.64166222
N   3.86251793 -1.81209672  0.40235881
C   3.73478806 -1.70363434  1.88321039
C   5.30194813 -1.89002870  0.02982883
C   3.16115998 -3.04093686 -0.06648669
C   3.24437556 -0.60850745 -0.22972722
H   5.80221899 -0.98708829  0.37574565
H   4.17853791 -2.58682932  2.33978041
H   4.25699000 -0.80719297  2.21370543
H   2.67798182 -1.63818036  2.13742278
H   2.19676430 -0.56193123  0.06934202
H   3.78369531  0.27199189  0.11315864
H   3.33086374 -0.70288841 -1.31114810
H   3.63860146 -3.90855913  0.38622421
H   2.11786987 -2.98291083  0.23671203
H   3.23670124 -3.09415694 -1.15131669
H   5.74141631 -2.76713078  0.50203679
H   5.37867692 -1.96918578 -1.05332236
B   1.96682706  2.85888176  0.11710353
F   0.94149732  3.82795904  0.08766777
F   3.22401532  3.50525322  0.11236683
F   1.84669059  2.08605610  1.28916508
F   1.86629730  2.03355331 -1.01987397

