66
Total Energy                               R     -1.468226883304025E+03
C   1.10968798 -0.57645472  1.43732951
C   0.46780667  0.45362305  2.38873695
C   1.19102690  0.58970970  3.72322967
C   0.97518468 -2.02999698  1.97890305
C  -0.43322689 -2.56661551  2.17433344
N   0.31144249 -0.50845711  0.14026340
O  -0.84132398 -0.27439827  0.23010803
C   0.85177617 -0.82627402 -1.24558490
C   0.59688141 -2.35217139 -1.44831903
C  -0.85195314 -2.77166679 -1.64605609
C   0.05428683  0.02924217 -2.24658899
C   0.48048714 -0.19448896 -3.69286397
C   2.34327025 -0.48219924 -1.30626626
C   3.13014124 -0.93992412 -0.08064326
C   4.60002176 -0.64248524 -0.25255989
O   5.46919105 -1.48837016 -0.26960708
O   4.86082278  0.65808371 -0.38853807
C   2.57591484 -0.23716730  1.15694960
H  -0.57323562  0.18861454  2.57062987
H   0.46881933  1.41830991  1.87890100
H   1.18229897 -0.33844430  4.29921624
H   0.67929450  1.34778942  4.32073284
H   2.22766771  0.91220171  3.60441972
H   1.49774711 -1.99674123  2.93726919
H   1.55105509 -2.71007907  1.35150451
H  -1.04741836 -1.91695555  2.80182682
H  -0.37196632 -3.53852500  2.66987700
H  -0.95471362 -2.72321623  1.22835011
H   1.04482619 -2.91656004 -0.63103984
H   1.17925060 -2.60580858 -2.33759614
H  -1.51076514 -2.42740538 -0.84491247
H  -0.90574459 -3.86291996 -1.65886643
H  -1.25621100 -2.40729597 -2.59248939
H   0.19938199  1.07714708 -1.97944170
H  -1.00931279 -0.18261861 -2.14933622
H   1.52121898  0.08669862 -3.86724821
H  -0.14023224  0.42617454 -4.34309549
H   0.34908496 -1.23295929 -4.00648220
H   2.44648053  0.59915053 -1.41852026
H   2.74298370 -0.94510729 -2.20944129
H   3.06841661 -2.02270526  0.02966868
H   5.81263214  0.79245756 -0.50107909
H   2.67377685  0.84374783  1.03760334
H   3.14356076 -0.52345412  2.04414832
N  -4.60442450 -0.53101060  0.05028590
C  -3.77301265 -0.03821682 -1.08511506
C  -5.48564957  0.56917441  0.53286590
C  -5.43931613 -1.67504972 -0.41263709
C  -3.72123920 -0.98311119  1.16335601
H  -4.86026695  1.39873288  0.85835123
H  -4.43734612  0.30004305 -1.87855761
H  -3.15413369  0.78525453 -0.73559282
H  -3.15159059 -0.85720477 -1.44176433
H  -3.06828050 -1.76916423  0.78997271
H  -3.13503183 -0.13580621  1.51228166
H  -4.34673949 -1.36432291  1.96883796
H  -6.07267368 -1.33638973 -1.23080861
H  -4.77951709 -2.47175101 -0.75229826
H  -6.05098562 -2.02192645  0.41830563
H  -6.13234989  0.88441742 -0.28407032
H  -6.08288405  0.19891584  1.36436764
B  -0.16426634  3.30018604 -0.18482113
F  -0.23968123  3.99800787 -1.40612281
F  -0.05296032  4.21306600  0.88235887
F  -1.32585617  2.51945588 -0.01613363
F   0.97217112  2.45891063 -0.19826729

