66
Total Energy                               R     -1.468410179609703E+03
C  -0.73247621 -1.18736483 -0.84718161
C   0.59528591 -0.90485219 -1.57606942
C   0.65586095 -1.40124652 -3.01701622
C  -1.03365508 -2.70510772 -0.81277993
C   0.08601605 -3.59642979 -0.28791773
N  -0.60914350 -0.64477473  0.54925733
O   0.52946431 -0.74880815  1.11910251
C  -1.77364389 -0.24349747  1.41086360
C  -2.39799519 -1.47514420  2.10901753
C  -1.48406515 -2.25239080  3.04665944
C  -1.24928661  0.77241465  2.44722132
C  -2.29906783  1.29936870  3.42038975
C  -2.82767359  0.44877618  0.53375150
C  -3.13765408 -0.31956129 -0.74830046
C  -4.21739402  0.35126710 -1.55551206
O  -5.21745772 -0.20481222 -1.96328566
O  -3.97273637  1.64082106 -1.80793864
C  -1.85672936 -0.43447213 -1.57522267
H   1.41692208 -1.34772680 -1.01691098
H   0.76122890  0.17421273 -1.56925992
H   0.54673119 -2.48669918 -3.08636047
H   1.62956763 -1.14592770 -3.44428120
H  -0.10781988 -0.94454876 -3.65200524
H  -1.27724455 -3.00353471 -1.83702119
H  -1.94066352 -2.88394968 -0.23474775
H   0.95273050 -3.59517795 -0.95368711
H  -0.26710670 -4.62864746 -0.21114338
H   0.42954967 -3.29011602  0.70182966
H  -2.80893609 -2.15412308  1.36089143
H  -3.26250705 -1.10910172  2.67063025
H  -0.60451638 -2.64415438  2.53240041
H  -2.02493983 -3.10419903  3.46853126
H  -1.13737897 -1.63883246  3.88251497
H  -0.81521610  1.61501937  1.90396723
H  -0.43609830  0.32260977  3.01600681
H  -3.13385889  1.79065300  2.91381282
H  -1.83958585  2.03985131  4.08082879
H  -2.70723469  0.50942421  4.05601504
H  -2.46679607  1.44702523  0.26932265
H  -3.73698656  0.57754560  1.12441529
H  -3.52697587 -1.31248135 -0.51964037
H  -4.69473224  2.00930550 -2.33645951
H  -1.50557759  0.57254390 -1.82097848
H  -2.06096694 -0.94711471 -2.51745466
N   1.48791783  3.20678621 -0.16092533
C   1.73886842  4.60251867 -0.61571188
C   2.47572498  2.28603474 -0.79285237
C   1.63257125  3.12876894  1.32067146
C   0.10710497  2.79839467 -0.54940638
H   2.34497139  2.31924071 -1.87312036
H   2.75063239  4.88744317 -0.33249980
H   1.62687385  4.64279808 -1.69786374
H   1.01536850  5.26152534 -0.13861440
H  -0.60349417  3.47437863 -0.07688380
H   0.01819466  2.85437463 -1.63294754
H  -0.06084902  1.77945496 -0.21082399
H   2.63675382  3.45293228  1.58950697
H   0.89155600  3.78009629  1.78091718
H   1.47705338  2.09758474  1.63286974
H   3.47850835  2.61324249 -0.52391010
H   2.30055762  1.28232758 -0.41774636
B   4.24613658 -1.06576420  0.00366945
F   3.53049338 -2.27963693  0.04814430
F   3.76426550 -0.19669741  1.00408099
F   5.61689166 -1.32076966  0.22645114
F   4.08337959 -0.46678262 -1.26350092

