32
Total Energy                               R     -6.723892248760819E+02
C   1.02890307 -0.43178956 -0.46840113
C   2.47290605 -0.47395394 -0.03934077
C   0.32293205 -1.72176841 -0.05468458
N  -1.11025826  0.75931226 -0.45395445
O   2.87693576 -0.85288261  1.04212754
C  -1.89114446 -0.45743705 -0.10485514
C  -1.10582361 -1.69233357 -0.56926613
C  -2.27228825 -0.60231208  1.38080298
C  -3.19447628 -0.41528074 -0.91196294
C   0.43191591  1.00740547  1.57590649
O  -1.82791619  1.92031317 -0.07357264
O   3.32007491 -0.06936933 -0.99645516
C   0.29122218  0.84182161  0.05082581
C   0.93576188  2.06706932 -0.61134194
H   0.33863457  0.07235937  2.12714007
H   1.40464645  1.43801854  1.82887230
H   4.22638413 -0.11013042 -0.65871371
H   0.34674015 -1.83700069  1.03204382
H   1.02262829 -0.36917776 -1.56018010
H   0.85561799 -2.58251282 -0.47116189
H  -1.64180295 -2.59168053 -0.24852030
H  -1.08896556 -1.70768440 -1.66582142
H  -3.71367455 -1.37589957 -0.83257763
H  -1.44349080 -0.93259670  2.00729376
H  -3.07139176 -1.34306259  1.48605877
H  -2.64423419  0.34340969  1.78117605
H  -3.87114176  0.36089506 -0.54879524
H  -0.33556239  1.69384034  1.93817276
H   0.47805570  2.99011429 -0.25387367
H  -2.99304264 -0.22634863 -1.97079442
H   2.00204670  2.12187041 -0.37630979
H   0.82815340  2.02738447 -1.69922209

