32
Total Energy                               R     -6.722775263314343E+02
C   0.34476233  0.85572578  0.10204819
C   0.89221802  2.09236887 -0.61148448
C  -3.17219399 -0.30820884 -0.97985936
N  -1.12214445  0.77280145 -0.19830332
O  -1.76828002  1.86823321 -0.09684005
C   1.02345611 -0.42187470 -0.46767590
C  -1.11499164 -1.66489965 -0.61377111
C   2.47880857 -0.49902302 -0.06766060
C   0.29993245 -1.70521361 -0.06506522
C   0.53615675  1.01945865  1.61600636
O   3.30470433 -0.03618823 -1.01104853
O   2.88857916 -0.95225394  0.98008398
C  -1.93495308 -0.47847267 -0.10003844
C  -2.37144037 -0.68584814  1.35615486
H   0.44627863  3.00362214 -0.21393412
H   1.56116034  1.32911008  1.82982670
H  -0.13290589  1.80012360  1.98404719
H   0.70207436  2.04612835 -1.68647586
H  -3.85483181  0.44467795 -0.58396825
H  -2.89641583 -0.03109254 -2.00044988
H   0.99448439 -0.33577084 -1.55738905
H  -1.07199641 -1.61946294 -1.70759999
H  -1.65365402 -2.57982384 -0.35366392
H   1.97052723  2.15593418 -0.45567048
H   0.83156858 -2.56498625 -0.48094423
H   4.21940831 -0.10532322 -0.70115838
H   0.30310257 -1.82568544  1.02092818
H   0.33793083  0.10268559  2.17105840
H  -3.10773665 -1.49277851  1.39561814
H  -3.70554048 -1.26137142 -1.01874280
H  -1.54104606 -0.95874400  2.00821589
H  -2.83795560  0.22074269  1.74893675

