61
Total Energy                               R     -1.043855666509784E+03
C  -1.06467532  1.40338198  0.05704837
C  -0.33093682  2.64844539 -0.50696308
C  -0.33953536  3.90570692  0.36268021
C  -2.45606299  1.87775805  0.54562159
C  -3.39011217  2.47384040 -0.50030550
N  -1.10797642  0.37740212 -1.05159901
O   0.21423299  0.28332140 -1.58442579
C  -1.53442412 -1.01101574 -0.64933834
C  -3.06587553 -1.11031840 -0.44287297
C  -3.92253998 -0.93005541 -1.69571458
C  -1.16077965 -1.97861814 -1.79951676
C  -1.60897453 -3.43038534 -1.62885395
C  -0.79885719 -1.49410813  0.62220423
C  -0.83579508 -0.46463212  1.76257629
C  -0.10140131 -1.03758575  2.94228443
O  -0.62995696 -1.67821719  3.83247036
O   1.21842872 -0.82380178  2.92656573
C  -0.27939307  0.87163297  1.27463298
H  -0.76310585  2.88957059 -1.48412173
H   0.70468220  2.37708443 -0.70132371
H  -1.32535476  4.37295134  0.43352115
H   0.33639782  4.65083732 -0.06840881
H   0.00889166  3.70899610  1.38125466
H  -2.26501324  2.63785369  1.30934893
H  -2.98191472  1.09395205  1.08607213
H  -2.94819002  3.34151717 -0.99822108
H  -4.31844856  2.80931905 -0.02718112
H  -3.65791248  1.75303534 -1.27311470
H  -3.40373778 -0.41257844  0.31696545
H  -3.27285643 -2.09948572 -0.02072411
H  -3.60967962 -0.06549550 -2.28368203
H  -4.97163147 -0.78174102 -1.42220609
H  -3.88002318 -1.80203207 -2.35387235
H  -0.07889199 -1.96633378 -1.91812191
H  -1.57074631 -1.58209466 -2.73452756
H  -1.18961753 -3.88735437 -0.72789477
H  -1.25821866 -4.02274414 -2.47966525
H  -2.69477937 -3.54746451 -1.58359762
H   0.24621675 -1.69892182  0.37022845
H  -1.23299333 -2.43600590  0.96801378
H  -1.86696715 -0.35137961  2.10496871
H   1.62192978 -1.25291272  3.69426218
H   0.76782887  0.74132958  0.99274859
H  -0.30386603  1.60420351  2.08688039
N   3.96942252 -0.03109828 -0.71600117
C   5.42878561 -0.31401626 -0.79883540
C   3.75540875  1.30229850 -0.08616304
C   3.37897188 -0.03188595 -2.08614237
C   3.30250697 -1.07784345  0.10958171
H   4.17653108  1.28714704  0.91760451
H   5.90078692  0.45618528 -1.40652114
H   5.84511827 -0.30643425  0.20708203
H   5.56992040 -1.29185444 -1.25619590
H   3.45851303 -2.04640007 -0.36278686
H   3.74014939 -1.06857896  1.10616375
H   2.24032766 -0.84969415  0.15734211
H   3.86403663  0.74647534 -2.67312154
H   3.55693497 -1.00689237 -2.53758293
H   2.30818719  0.15805486 -2.00055708
H   4.25217306  2.05880881 -0.69128110
H   2.68570138  1.49893358 -0.04297141

