48
Total Energy                               R     -7.533952212449728E+02
C   1.21909511  1.26184924  0.41596096
C   0.27850704  2.43076779  0.10313644
C   1.77012556  1.53389520  1.82805462
N   0.41180753  0.00181426  0.35468323
O  -0.29949729 -0.00417692 -0.86392245
C   1.22648035 -1.25274107  0.42414454
C   1.78071389 -1.51248447  1.83721817
C   0.29395505 -2.43009243  0.11911369
C   2.36898650 -1.23886222 -0.61069165
C   3.24421916  0.01403097 -0.53667697
N   4.26784320  0.07211855 -1.59130251
C   2.36377640  1.25613925 -0.61649399
H  -0.54740763  2.46583985  0.82352618
H  -0.14510810  2.33332986 -0.89438061
H   0.82374624  3.37845356  0.17070681
H   1.01526692  1.30655574  2.58708272
H   2.02385467  2.59466230  1.92030915
H   2.67307042  0.97801419  2.07394644
H   1.02116898 -1.29635625  2.59496170
H   2.67363303 -0.94100658  2.08348774
H   2.05179084 -2.56878331  1.93179946
H  -0.53347711 -2.46452196  0.83793163
H   0.84501899 -3.37373115  0.19603307
H  -0.12811501 -2.34469290 -0.88016916
H   1.92486922 -1.28077148 -1.61215308
H   2.99185588 -2.13514744 -0.49035097
H   3.79098562  0.01881289  0.41271823
H   3.80803521  0.04057967 -2.49806484
H   4.84357376 -0.76413895 -1.54660315
H   1.91984236  1.29501557 -1.61850278
H   2.97891057  2.15626790 -0.49576139
N  -3.54172272 -0.00595867 -0.18086129
C  -2.81904543  0.00611881  1.12505153
C  -3.13219044 -1.22344358 -0.94076875
C  -5.00984606 -0.00748252  0.04501367
C  -3.13749657  1.20080250 -0.96049298
H  -2.04800649 -1.15059296 -1.07510252
H  -3.10939374 -0.88138558  1.68752179
H  -1.74564284  0.00587742  0.91870163
H  -3.11194839  0.90214031  1.67248881
H  -3.41529727  2.08907180 -0.39335396
H  -2.05302130  1.13064674 -1.09357018
H  -3.66314187  1.18898233 -1.91514915
H  -5.27774391 -0.89672303  0.61427605
H  -5.28172616  0.88892489  0.60095757
H  -5.51467393 -0.01580635 -0.92025758
H  -3.40617849 -2.10357752 -0.35927745
H  -3.65794159 -1.22932800 -1.89542426

