36
Total Energy                               R     -9.635289363689467E+02
C  -1.43718203  0.15608813  1.32004095
C  -0.83232705  0.85861151  2.52707547
C  -2.97288410  0.11405444  1.45527743
N  -1.15020897  1.00925261  0.09248896
O  -0.95608738  2.16118367  0.24713236
C  -1.17576846  0.46717312 -1.32918048
C  -2.65379620  0.47878794 -1.76648339
C  -0.37325329  1.41940457 -2.20401135
C  -0.57489499 -0.94280997 -1.33364930
C  -1.09090425 -1.87068408 -0.23389776
N  -0.46194227 -3.18947727 -0.26369992
C  -0.82597758 -1.23525398  1.12380689
H  -1.34338808  1.79326600  2.76040128
H   0.23169440  1.04974544  2.38350797
H  -0.94941123  0.18618869  3.37882966
H  -3.40461193  1.11532988  1.39904348
H  -3.17852251 -0.29256666  2.44713299
H  -3.44869030 -0.53019374  0.72046377
H  -3.11595152  1.45035787 -1.58004207
H  -3.24945701 -0.30140528 -1.29847090
H  -2.65121612  0.30280106 -2.84374116
H  -0.86009718  2.38945527 -2.31146277
H  -0.30454600  0.96270187 -3.19297616
H   0.63687509  1.55852606 -1.81808387
H   0.51184634 -0.86277127 -1.24877821
H  -0.79389345 -1.36496912 -2.31819746
H  -2.16460685 -2.03150720 -0.36351000
H   0.54772797 -3.08614222 -0.20560928
H  -0.65062072 -3.63585761 -1.15565653
H   0.25459745 -1.16620105  1.27808088
H  -1.23201830 -1.86342798  1.92023341
B   2.82590165  0.13501276  0.09498863
F   1.67086429  0.90700289  0.36590588
F   3.95122102  0.77625931  0.64727207
F   2.67934295 -1.14369838  0.66868544
F   2.98640143  0.01060055 -1.29948129

