50
Total Energy                               R     -9.997307517613613E+02
C   1.61877540 -0.60706856 -0.95626836
C   0.71270184 -0.94748660 -2.14135252
C   2.80112986 -1.59040928 -0.92221104
N   2.00273333  0.83136875 -1.08018602
O   3.06177438  1.06439042 -1.97322578
C   2.21422661  1.40938482  0.26887120
C   1.82815833  2.88969199  0.24606275
C   3.63489888  1.28515039  0.84748433
C   1.24119355  0.58263257  1.06848509
C   0.88912786 -0.57604300  0.37658636
C  -0.07270515 -1.42655931  0.93013173
C  -0.60097985 -2.65922907  0.28304344
O  -1.78722701 -2.90245920  0.18014252
O   0.33659670 -3.50847954 -0.13039081
C  -0.65231036 -1.09837475  2.16171984
C  -0.26404942  0.04071302  2.85133764
C   0.68899745  0.89269798  2.30117534
H   1.25168854 -0.75313318 -3.07320311
H  -0.18685766 -0.32711362 -2.13390530
H   0.41455858 -1.99805441 -2.15076922
H   3.41477226 -1.46517649 -1.81691188
H   2.43551358 -2.61729694 -0.90259066
H   3.43872699 -1.44633392 -0.04885958
H   2.46770608  3.43174307 -0.45688473
H   1.95300526  3.34945238  1.23103395
H   0.78754590  3.01798903 -0.06506766
H   4.34895673  1.84761797  0.24088613
H   3.97638682  0.25122372  0.90709486
H   3.65352210  1.70121773  1.85926755
H  -0.08379907 -4.26986627 -0.55628214
H  -1.40982846 -1.75168135  2.58104001
H  -0.71713247  0.27053706  3.80954224
H   0.97763536  1.80027374  2.82235262
N  -3.20761761  1.08866706 -0.53990842
C  -4.15473383  2.13628458 -1.01319771
C  -3.07014337  0.02939477 -1.57992406
C  -1.87321659  1.70124080 -0.28200721
C  -3.72540806  0.48085296  0.71847329
H  -4.05059195 -0.40673220 -1.76468945
H  -3.76349255  2.57399263 -1.92977111
H  -5.12273659  1.67448570 -1.20015317
H  -4.24470402  2.89905291 -0.24143935
H  -3.80725658  1.26001163  1.47459069
H  -4.70276151  0.04465467  0.51892847
H  -3.02951206 -0.28932753  1.04567924
H  -1.50798678  2.14517548 -1.20650395
H  -1.97917741  2.46331694  0.48813188
H  -1.19702261  0.91895477  0.05033093
H  -2.68184640  0.48195514 -2.49050875
H  -2.38425368 -0.73204269 -1.21334536

