38
Total Energy                               R     -1.209830029030358E+03
C   1.22396347 -0.82303757  1.02910978
C   2.13734026 -2.05278497  1.18839204
C   0.38539547 -0.54599090  2.27368944
N   2.18301229  0.33703330  0.87570969
O   2.84157775  0.73398782  1.76052147
C   2.24394282  0.91360999 -0.50561058
C   3.62082389  0.55354380 -1.07924381
C   2.03807717  2.42360252 -0.41304257
C   1.11014463  0.17205894 -1.15072969
C   0.51916934 -0.76677704 -0.31278940
C  -0.58097797 -1.49690013 -0.78130785
C  -1.29031306 -2.51500936  0.04086067
O  -0.79809665 -3.14184909  0.95433022
O  -2.55498310 -2.69513389 -0.34441154
C  -1.02708882 -1.27206208 -2.08590952
C  -0.39904987 -0.35634459 -2.91913759
C   0.67361090  0.38473001 -2.44872771
H   2.75081207 -1.94010573  2.08389862
H   2.77809099 -2.18465065  0.31513696
H   1.49456552 -2.92361834  1.29526985
H   1.03379915 -0.47982613  3.14831644
H  -0.30377032 -1.37447460  2.41897559
H  -0.18246322  0.37687127  2.16124766
H   4.40817897  1.03934748 -0.50098571
H   3.64859449  0.92596550 -2.10436185
H   3.77789748 -0.52558030 -1.09006447
H   2.84941287  2.88631438  0.15023318
H   1.07823464  2.66133471  0.04671709
H   2.04972792  2.81623705 -1.43087983
H  -2.95618270 -3.39190140  0.19388255
H  -1.87425853 -1.83325106 -2.45832763
H  -0.75993251 -0.21341726 -3.93080882
H   1.16319073  1.11974914 -3.07831164
B  -2.34297688  1.79703262  0.50279432
F  -1.14024054  2.24868386  1.08924842
F  -2.21795202  1.82258549 -0.89996747
F  -2.61582398  0.48298688  0.93258015
F  -3.39935150  2.64671482  0.89583690

