32
Total Energy                               R     -6.723682503143355E+02
C   0.83212350  1.27901447 -0.12176823
C   1.08823164  1.72462959  1.33104703
C   1.36018846  2.38499794 -1.04406887
N   1.52069063  0.02509138 -0.51835240
O   2.89756473  0.12929176 -0.26459681
C   0.98410829 -1.23651390  0.05329388
C   1.65347310 -2.38672417 -0.70871632
C   1.28105008 -1.44413064  1.55135015
C  -0.52535323 -1.32577376 -0.22053004
C  -1.28275546 -0.09848761  0.26508378
C  -2.74923383 -0.16397008 -0.06741330
O  -3.25012808 -0.77864557 -0.98011128
O  -3.48892655  0.58917493  0.76372271
C  -0.67566593  1.14998924 -0.39007826
H   2.41463673  2.58045569 -0.84245650
H   2.14035392  1.54671062  1.56589963
H   0.88005269  2.79358043  1.45024934
H   1.26455732  2.08834749 -2.09393840
H   0.79754693  3.31391399 -0.89732907
H  -0.84132908  1.08740971 -1.47274397
H   2.72103738 -2.42468741 -0.48603615
H  -0.68635312 -1.43117414 -1.29891857
H   1.53572970 -2.25265589 -1.78935916
H   2.30741549 -1.12491414  1.74776402
H   1.20425699 -3.34735723 -0.43212880
H   1.18817259 -2.50215743  1.82020880
H   0.61318918 -0.88440452  2.20876698
H  -0.92166549 -2.23196176  0.25143442
H  -1.20892589 -0.00275368  1.35132054
H  -4.41447421  0.55076452  0.47832006
H   0.47560997  1.19321574  2.06191027
H  -1.17972610  2.05527287 -0.03581265

