42
Total Energy                               R     -1.127557974189913E+03
C   0.84384251  1.21605595  0.06395350
C   0.86671085  2.62948102  0.15620451
C  -1.75308363 -2.99541999 -0.45687443
N  -2.84725162 -0.81977956 -0.35504211
O   3.06255051 -3.01140596 -0.17445353
C   1.99951902 -0.91143910 -0.05731739
C   0.75222286 -1.57651878 -0.03158789
C   3.26035325 -1.69488743 -0.13364309
C   2.04719985  0.46008322  0.01341014
C  -0.42821645 -0.88874562  0.02257561
C  -0.40846948  0.53532662  0.02708088
C  -1.60913803  1.29434652  0.01671826
C  -1.53838594  2.66324895  0.12956978
C  -3.58643943  1.18970264 -1.49313881
O   3.78431339  1.58757607 -1.11062309
O   3.88240602  1.51686293  1.12738073
C  -2.97180867  0.65272419 -0.19130463
C  -3.91370054  0.94498682  0.98809125
O  -3.92892266 -1.43271528 -0.63112028
O   4.36816329 -1.19930814 -0.15942084
C  -0.30431806  3.33216217  0.21036245
C  -1.74030670 -1.62783588  0.22412054
C  -1.98033944 -1.80327431  1.73615799
C   3.34501000  1.21329839  0.08703311
H  -0.28854052  4.41298859  0.29372416
H   1.81138529  3.16094574  0.18686398
H  -2.44547376  3.25669933  0.13592592
H  -4.55829810  0.72923247 -1.67267980
H  -2.93321031  0.98460053 -2.34462811
H  -1.56176712 -2.90986639 -1.52889978
H  -0.99411976 -3.64049419 -0.01545057
H  -2.71514175 -3.48208727 -0.30746806
H  -2.97927773 -2.21018049  1.91107926
H   3.91539879 -3.46592602 -0.22041835
H   0.75781922 -2.65653293 -0.03153415
H   4.60830564  2.08883358 -1.01680893
H  -3.73124293  2.26792997 -1.41997923
H  -4.12095686  2.01514740  1.04050974
H  -4.86176839  0.42416626  0.84234444
H  -3.48079997  0.63352712  1.93945282
H  -1.88169786 -0.85800361  2.27260526
H  -1.24184881 -2.50037239  2.13808165

