55
Total Energy                               R     -1.237215351668596E+03
C  -3.14574472  0.35367216  0.10030405
C  -3.77575336  1.74188379 -0.06263277
C  -4.31105109 -0.58893762  0.45544465
N  -2.48993907 -0.02769483 -1.19384929
O  -1.65041655  1.05727910 -1.58775647
C  -1.63865396 -1.25922970 -1.10144220
C  -2.48815616 -2.53918477 -0.99389739
C  -0.84733507 -1.40825553 -2.40645913
C  -0.63704172 -1.18403182  0.07031284
C  -1.30640173 -0.85015121  1.39729227
O  -0.34890143 -0.62198114  2.43857464
C   0.27897370 -1.79907001  2.90795895
C  -2.13684706  0.41375718  1.26644900
H  -4.50313413  1.74319603 -0.88198933
H  -3.03295108  2.51217163 -0.26533118
H  -4.30767684  2.01293767  0.85441409
H  -4.90108012 -0.83137708 -0.43249484
H  -4.97373132 -0.08737847  1.16641638
H  -4.00716253 -1.52219904  0.92474969
H  -3.33143143 -2.50553525 -1.68926247
H  -2.87910098 -2.74071209  0.00047596
H  -1.87062127 -3.40060579 -1.26380999
H  -1.52568694 -1.46339959 -3.26515224
H  -0.26755454 -2.33555629 -2.37927852
H  -0.15520304 -0.58421295 -2.57013956
H   0.10514643 -0.40817163 -0.14190612
H  -0.09852879 -2.13395271  0.13398644
H  -1.94126744 -1.68563543  1.72088518
H   0.92749000 -1.50955683  3.73599594
H   0.88889225 -2.27786435  2.13624041
H  -0.46393023 -2.52026297  3.27204209
H  -1.45685619  1.25709688  1.10886847
H  -2.67408769  0.60147625  2.20271548
N   1.52251716  2.98857188 -0.00914890
C   1.45621498  2.20823653  1.25896601
C   2.39931418  4.17611113  0.18386217
C   2.07804639  2.12514101 -1.08996143
C   0.15045867  3.43360988 -0.39240813
H   1.97858091  4.79521930  0.97449717
H   2.46469663  1.91065504  1.53951921
H   1.02068330  2.83747943  2.03345059
H   0.83785115  1.32968889  1.09656246
H  -0.46326308  2.55178654 -0.59374600
H  -0.26493590  4.02070822  0.42548922
H   0.22726802  4.04734294 -1.28923067
H   3.07636238  1.80096951 -0.80206270
H   1.42300415  1.26588372 -1.21961723
H   2.12224640  2.70546870 -2.01012754
H   3.39561603  3.83736910  0.46333526
H   2.44127091  4.73675047 -0.74832953
B   3.13122463 -1.73274042 -0.29677284
F   2.56208268 -2.99263526 -0.01429971
F   4.53296365 -1.86880829 -0.41270998
F   2.60900436 -1.24166600 -1.50987795
F   2.83631936 -0.83532454  0.74782172

