55
Total Energy                               R     -1.236923929793486E+03
C  -0.05125963 -0.60538971 -1.32729840
C   0.21210460  0.55736856 -2.27428851
C   0.97801419 -1.72370359 -1.57964036
N   0.20476588 -0.12037834  0.09359369
O   0.96857523  0.76180595  0.24876829
C  -0.41075757 -0.76797944  1.32855969
C   0.49953875 -1.95509299  1.69532808
C  -0.38461198  0.25883859  2.45113782
C  -1.84191701 -1.20531988  1.00637165
C  -1.97764687 -1.96218941 -0.30922488
O  -3.33214240 -2.27673574 -0.58914746
C  -3.86415914 -3.31375361  0.21740475
C  -1.49946087 -1.08452131 -1.45031972
H   1.26593705  0.83068335 -2.30920694
H  -0.38418445  1.42939959 -2.00584885
H  -0.08586476  0.22723979 -3.27090447
H   1.98465796 -1.39141241 -1.32094408
H   0.94648479 -1.92938059 -2.65085569
H   0.74940142 -2.64601200 -1.04987947
H   1.53271447 -1.63052693  1.82195904
H   0.45860769 -2.77223381  0.97927607
H   0.13639215 -2.32630464  2.65511651
H   0.63325997  0.49429586  2.76250269
H  -0.90834898 -0.18245176  3.30063175
H  -0.90089937  1.17478184  2.16403651
H  -2.48956472 -0.32620878  0.97437980
H  -2.16012461 -1.81987877  1.85081085
H  -1.40651109 -2.89749454 -0.27363340
H  -4.84060742 -3.56625759 -0.19588533
H  -3.99291076 -2.99720558  1.25735401
H  -3.22008759 -4.20014015  0.18797916
H  -2.15584978 -0.21358446 -1.51561294
H  -1.56694102 -1.62617224 -2.39629345
N   4.83495509  0.33489812  0.04692296
C   4.19914251 -0.87581048  0.63845232
C   4.53348407  1.51832329  0.90229676
C   6.30969856  0.13556247 -0.03098334
C   4.28585315  0.56077257 -1.31986970
H   3.45317805  1.64024599  0.96160039
H   4.58187574 -1.01612028  1.64782053
H   3.12389332 -0.71932487  0.66161624
H   4.43977794 -1.73838319  0.01967124
H   4.48328195 -0.31983206 -1.92851594
H   3.21500326  0.73049574 -1.23419725
H   4.77083936  1.43442538 -1.75177426
H   6.69185319 -0.03657737  0.97365530
H   6.51168862 -0.72709587 -0.66354483
H   6.76228546  1.02907700 -0.45703153
H   4.94761856  1.34710442  1.89433014
H   4.98746899  2.39935783  0.45234547
B  -3.02491993  2.33570850  0.01224738
F  -3.70093207  1.57759980 -0.96377905
F  -3.20814871  3.70845680 -0.24360844
F  -3.52948492  2.01924230  1.28907806
F  -1.64336448  2.03493643 -0.03172771

