55
Total Energy                               R     -1.237108807092717E+03
C   0.55973707 -1.39805143 -1.11972437
C   0.76017754 -1.49633359 -2.63173242
C   1.66455205 -2.19486051 -0.41317544
N   0.66005402  0.04145254 -0.73146125
O   1.66079745  0.68267385 -1.19772604
C  -0.02581372  0.65132756  0.44744338
C   0.88015255  0.54225720  1.68050333
C  -0.27730780  2.12713570  0.13782292
C  -1.37397809 -0.03710303  0.68137450
C  -1.29770183 -1.55421977  0.61679406
O  -2.57414059 -2.15403590  0.81636058
C  -2.98617581 -2.18323801  2.17018199
C  -0.82903006 -1.94438232 -0.76948026
H   1.77330665 -1.21644630 -2.92368272
H   0.05065089 -0.85911318 -3.16546602
H   0.59056876 -2.53011004 -2.94281381
H   2.64774845 -1.79431022 -0.66762835
H   1.62600984 -3.23329914 -0.75179885
H   1.55657101 -2.18977011  0.67252306
H   1.83567887  1.03875998  1.49971893
H   1.07407594 -0.49213988  1.96885033
H   0.39479554  1.04204782  2.52276014
H   0.65484775  2.68976867  0.06740274
H  -0.87482619  2.55902041  0.94437676
H  -0.83179786  2.24480273 -0.79625528
H  -2.08369193  0.29151909 -0.08244819
H  -1.75253886  0.30572345  1.64686563
H  -0.61370336 -1.94498135  1.38093782
H  -3.95131399 -2.68953012  2.19974244
H  -3.10344717 -1.17838531  2.58795331
H  -2.26837082 -2.74193938  2.78310645
H  -1.56118454 -1.56840378 -1.49284835
H  -0.79704371 -3.03231643 -0.86995534
N   5.19914424  0.59749187  0.26464445
C   4.51423503 -0.30383907  1.23398891
C   4.53000353  1.93041017  0.26881242
C   6.62807776  0.75288070  0.65798479
C   5.11978443  0.00968444 -1.10354286
H   3.49315773  1.80009938 -0.03654863
H   4.57387400  0.13959210  2.22654548
H   3.47562839 -0.41222992  0.93454733
H   5.01167864 -1.27212479  1.22330761
H   5.59244467 -0.97086326 -1.09120116
H   4.07204932 -0.07770040 -1.38501989
H   5.64050915  0.66944649 -1.79571719
H   6.67073294  1.18092815  1.65793413
H   7.10136095 -0.22752299  0.64828092
H   7.11773618  1.41384026 -0.05514646
H   4.58111161  2.34340491  1.27482042
H   5.04897144  2.58264418 -0.43171075
B  -4.81958107  1.12162915 -0.30610151
F  -4.34865628  0.20494193 -1.26935464
F  -6.11660597  1.54953359 -0.66243229
F  -4.86234965  0.49910284  0.95795674
F  -3.95634400  2.23639060 -0.25347974

