50
Total Energy                               R     -1.196418886819106E+03
C   0.22889111  0.71255410 -1.29608436
C   0.08607859 -0.49310038 -2.21218531
C  -0.89484719  1.72858804 -1.57519944
N   0.02281121  0.24298348  0.13923772
O  -0.63171812 -0.71755089  0.31654958
C   0.53098190  1.00189220  1.36131623
C  -0.49727308  2.11058679  1.65044319
C   0.58888216  0.02734375  2.52634163
C   1.91527078  1.59054650  1.05761219
C   2.04240355  2.22525945 -0.29896583
O   2.53052754  3.32447292 -0.46402410
C   1.61784075  1.34787097 -1.44230104
H  -0.93831250 -0.86156893 -2.24412547
H   0.75894288 -1.29798883 -1.91607781
H   0.36018350 -0.16283735 -3.21545738
H  -1.86574957  1.33627244 -1.26803065
H  -0.90705670  1.87787017 -2.65597601
H  -0.71941610  2.69326643 -1.10244639
H  -1.50628997  1.70610783  1.72816166
H  -0.47561701  2.91251205  0.91502101
H  -0.21862336  2.53119630  2.61798062
H  -0.40684643 -0.29456202  2.83126294
H   1.04879889  0.55612088  3.36274232
H   1.20043940 -0.84275338  2.28700835
H   2.66420315  0.79254571  1.10016828
H   2.14607239  2.31507967  1.83841481
H   2.36954658  0.55355043 -1.51101868
H   1.62916987  1.90899576 -2.37662853
N  -4.59077832 -0.66206460  0.02038435
C  -4.01526376  0.55253913  0.66269978
C  -4.29313936 -1.85342802  0.86597533
C  -6.06579835 -0.50060658 -0.11672345
C  -3.97804620 -0.84601976 -1.32561863
H  -3.21295270 -1.95085406  0.96364078
H  -4.46176233  0.67335080  1.64813100
H  -2.94127111  0.41352069  0.75183554
H  -4.23401781  1.41848593  0.04062636
H  -4.18113600  0.03738855 -1.92831457
H  -2.90618309 -0.98097531 -1.19890569
H  -4.41382168 -1.72824357 -1.79098273
H  -6.49467578 -0.36406373  0.87451207
H  -6.26447131  0.37223672 -0.73623427
H  -6.47489604 -1.39478771 -0.58366749
H  -4.74726950 -1.70939726  1.84472961
H  -4.70890993 -2.73664227  0.38442941
B   3.49505755 -1.74203684  0.00606740
F   3.91337990 -1.13573342 -1.19566692
F   3.87569687 -3.09554295  0.01344055
F   4.08189875 -1.07465795  1.09979976
F   2.08636265 -1.65068872  0.10769813

