50
Total Energy                               R     -1.196720691141376E+03
C  -2.41931894 -0.88315718 -1.06880554
C  -2.07114517 -2.09376069 -1.94015797
C  -3.86943481 -0.50935812 -1.42228169
N  -2.25548765 -1.25523168  0.36612774
O  -0.97466301 -1.84907001  0.52223214
C  -2.35183166 -0.11054548  1.31789287
C  -3.78002169  0.44961389  1.43525686
C  -1.97116852 -0.59421286  2.72038758
C  -1.38374946  1.04218781  0.91948093
C  -1.56824824  1.43112771 -0.51165642
O  -1.80052008  2.58263836 -0.86651433
C  -1.47273003  0.28715785 -1.46957357
H  -2.71760644 -2.94204866 -1.69175552
H  -1.03453384 -2.40517049 -1.82376426
H  -2.23666005 -1.84572933 -2.99253058
H  -4.57562203 -1.19506413 -0.94758860
H  -4.00405562 -0.58888737 -2.50427136
H  -4.14696670  0.50773728 -1.15289826
H  -4.51677441 -0.35684368  1.46458515
H  -4.05519285  1.13650648  0.63677588
H  -3.86515830  1.01312958  2.36814423
H  -2.64139807 -1.39876825  3.04104855
H  -2.07478810  0.22974421  3.43202459
H  -0.94688670 -0.95962093  2.77120246
H  -0.35726488  0.67818718  1.02704523
H  -1.51682514  1.90817733  1.57170937
H  -0.44237352 -0.07891366 -1.42341461
H  -1.67819355  0.62329330 -2.48842691
N   2.77530954 -2.14192223  0.05351554
C   1.97436883 -3.24561545  0.65776609
C   2.61781364 -0.90748570  0.87479149
C   4.21272293 -2.53023386  0.01043434
C   2.28629378 -1.88004101 -1.33063993
H   1.56386698 -0.63814582  0.89445762
H   2.33627117 -3.42346045  1.66929563
H   0.92731006 -2.94328257  0.67412067
H   2.10368615 -4.14066385  0.05106328
H   2.41021239 -2.78616732 -1.92165689
H   1.23410096 -1.60705408 -1.27876246
H   2.86926378 -1.06767311 -1.76079407
H   4.55579406 -2.71503039  1.02697918
H   4.31459170 -3.43260611 -0.58982410
H   4.78208820 -1.71627585 -0.43517927
H   2.97282063 -1.11327946  1.88338536
H   3.20653086 -0.11284087  0.42304388
B   2.06742195  2.59688903 -0.07908895
F   1.48702869  3.86114257 -0.31362132
F   3.46232466  2.67270203 -0.28996407
F   1.81908658  2.20743943  1.25287797
F   1.51356685  1.65469097 -0.96809093

