46
Total Energy                               R     -3.271631611447307E+03
C   1.86532617 -1.06918368  1.20190213
C   1.45472005 -1.76286751  2.50626303
C   3.40466525 -1.03821686  1.21982250
N   1.32515692 -1.85641371  0.04759832
O  -0.06754412 -2.06489340  0.26981499
C   1.47464680 -1.17435099 -1.27668559
C   2.93600980 -1.14467918 -1.75974406
C   0.71407079 -1.98186339 -2.33508735
C   0.88776403  0.25888094 -1.24999373
C   1.46921173  1.06509675 -0.10550567
Br   0.59766355  2.86351918 -0.04107596
C   1.30082044  0.37330259  1.23279276
H   1.83487246 -2.78983505  2.53079124
H   0.37466284 -1.79436119  2.63780697
H   1.88551318 -1.22760364  3.35750752
H   3.81625735 -2.01579079  0.95577290
H   3.74458817 -0.79792195  2.23084038
H   3.84897928 -0.29491414  0.56165074
H   3.42302586 -2.10684295 -1.58044741
H   3.54751492 -0.36759942 -1.30750351
H   2.95115787 -0.96122854 -2.83752383
H   1.08794611 -3.01057828 -2.37308074
H   0.87158559 -1.53403498 -3.32079201
H  -0.35740740 -2.01414996 -2.14944936
H  -0.19665863  0.19095153 -1.13454899
H   1.08901366  0.75128107 -2.20585669
H   2.50912452  1.32754184 -0.29056125
H   0.23968861  0.32885584  1.48901519
H   1.80307074  0.94004109  2.02219243
N  -3.61178511 -0.38254151  0.08608600
C  -2.72838289  0.79723548  0.30770687
C  -4.99239512  0.07928457 -0.22757420
C  -3.08130808 -1.19061594 -1.04996448
C  -3.63036879 -1.22000789  1.31898918
H  -5.36460748  0.66693731  0.61002477
H  -2.70148709  1.39265800 -0.60288934
H  -3.12930301  1.38525790  1.13166090
H  -1.73330731  0.43521267  0.55344987
H  -2.61326001 -1.54541488  1.53367038
H  -4.01653273 -0.62122042  2.14217448
H  -4.27293660 -2.08173274  1.14666896
H  -3.04175501 -0.56104986 -1.93749058
H  -2.08430458 -1.54212675 -0.78443625
H  -3.75002811 -2.03331648 -1.21805019
H  -4.95984457  0.68939064 -1.12868179
H  -5.62572373 -0.79183296 -0.38609471

