46
Total Energy                               R     -3.271523888529213E+03
C  -0.46158970  1.32542112  0.66791760
C  -0.23672247  2.33005395  1.79799817
C   0.29621904  1.79172784 -0.58072444
N   0.06628352  0.00003742  1.11272362
O   1.24688096  0.00005510  1.59761630
C  -0.46157107 -1.32537181  0.66797270
C   0.29624255 -1.79171350 -0.58065285
C  -0.23668870 -2.32996125  1.79808840
C  -1.97126141 -1.23452029  0.39437657
C  -2.32963922 -0.00001177 -0.40364309
Br  -4.26604215 -0.00003412 -0.80081257
C  -1.97127796  1.23454026  0.39431809
H   0.82511512  2.51606434  1.96427251
H  -0.68440031  1.98020333  2.73136561
H  -0.70860235  3.27761060  1.52674487
H   1.36592372  1.86072760 -0.37511053
H  -0.05788572  2.78742062 -0.85916601
H   0.14803095  1.12968287 -1.43558005
H   1.36594236 -1.86074433 -0.37502370
H   0.14808945 -1.12966989 -1.43551471
H  -0.05788740 -2.78739788 -0.85909190
H   0.82515181 -2.51594491  1.96437390
H  -0.70854790 -3.27753630  1.52686300
H  -0.68437871 -1.98008973  2.73144206
H  -2.51002482 -1.20768741  1.34672947
H  -2.26688706 -2.14774915 -0.12554799
H  -1.86621825 -0.00003214 -1.38855074
H  -2.51004688  1.20774894  1.34666877
H  -2.26690935  2.14774129 -0.12565227
N   4.44138152 -0.00001941 -0.59707883
C   3.37434148 -0.00001148 -1.63720701
C   4.30548152 -1.21700756  0.25363851
C   5.77852195 -0.00003824 -1.25456029
C   4.30551106  1.21697855  0.25362818
H   3.33529187 -1.19231041  0.74663322
H   3.48257282 -0.89341531 -2.24986495
H   2.40854635 -0.00000257 -1.14089193
H   3.48258882  0.89338878 -2.24986722
H   4.38596476  2.09762238 -0.38121334
H   3.33531172  1.19232131  0.74660544
H   5.10399210  1.21337256  0.99400897
H   5.86493405 -0.89276638 -1.87158972
H   5.86495406  0.89268118 -1.87159969
H   6.54688123 -0.00004261 -0.48315586
H   4.38589137 -2.09765836 -0.38119893
H   5.10397620 -1.21342588  0.99400444

