64
Total Energy                               R     -1.766570571069430E+03
C  -1.28942963 -2.02914562  1.30525614
C  -2.16553705 -1.23676352  2.29342962
C  -1.17435385 -3.48126989  1.82467535
N  -1.93037307 -1.86519485 -0.01696469
O  -3.18697676 -2.50215387 -0.02324428
C  -1.14608891 -2.26043904 -1.20753138
C  -0.86053570 -3.77456256 -1.35023983
C  -1.96028279 -1.80415082 -2.43030410
C   0.19239887 -1.53865097 -1.17879140
C   0.78985187 -1.16123188  0.06034789
C   0.10468245 -1.41897976  1.28336878
C   0.73077020 -1.13024016  2.47261342
C   1.96092025 -0.46654549  2.49825596
C   2.60768591 -0.12117658  1.33678755
C   3.75626114  0.81045920  1.52020872
O   4.61960892  0.65979177  2.35913270
O   3.77395795  1.91418858  0.76379277
C   2.08339272 -0.54468490  0.07728319
C   2.77123269 -0.39031567 -1.16651621
C   4.19881656 -0.00453692 -1.31113082
O   4.63410701  0.69147797 -2.20548943
O   4.99128238 -0.57176015 -0.39750987
C   2.14806804 -0.73095897 -2.34192353
C   0.86835546 -1.29524626 -2.34935125
H  -3.18180922 -1.63062657  2.28160480
H  -2.19651740 -0.18107926  2.01279285
H  -1.79724320 -1.30992513  3.31756789
H  -2.12534576 -4.00148147  1.69781197
H  -0.93255263 -3.47491359  2.89079152
H  -0.39553821 -4.04983061  1.31715366
H  -1.76931114 -4.35065318 -1.16073745
H  -0.08236729 -4.11657543 -0.66728383
H  -0.52246197 -3.99582684 -2.36614887
H  -2.96675642 -2.21456499 -2.36576270
H  -1.52062537 -2.15450687 -3.36513363
H  -2.03118134 -0.71448421 -2.47118695
H   0.25652056 -1.36183624  3.41779145
H   2.37979265 -0.16384824  3.45162080
H   2.94283731  2.06707614  0.27290599
H   5.90331877 -0.27521086 -0.52863562
H   2.67774388 -0.60853775 -3.28003522
H   0.44149235 -1.57292357 -3.30391242
N  -4.43682868  1.68972373 -0.02273613
C  -5.16125082  0.88815959  1.00333574
C  -3.78991250  0.76895499 -1.00211111
C  -5.40072732  2.57804564 -0.73005240
C  -3.39129024  2.52017613  0.63988396
H  -3.08467234  0.12204902 -0.47724518
H  -5.91966712  0.28680216  0.50524510
H  -4.44757123  0.24311626  1.51118336
H  -5.62764443  1.56880077  1.71377082
H  -3.87231182  3.16944676  1.36974678
H  -2.68075314  1.86040885  1.13239242
H  -2.88757304  3.11586549 -0.11795472
H  -6.15884061  1.96041899 -1.20872070
H  -5.86288074  3.24415826 -0.00315896
H  -4.86072959  3.15607641 -1.47795199
H  -4.56556633  0.16984533 -1.47671937
H  -3.27488520  1.37046951 -1.74922983
B   0.19727735  2.64062418 -0.28864080
F   0.06526614  2.13406840  1.01200333
F  -0.31573932  3.94751645 -0.35113143
F   1.58887196  2.68580907 -0.63120552
F  -0.46582930  1.81857655 -1.20854115

