27
Total Energy                               R     -5.196148428757075E+02
C   1.12736507 -0.34623798  0.11160051
C  -2.02480111  0.86270538 -1.05977466
C  -2.29637831 -0.81183374  0.78847703
N  -0.19082935 -0.66056611 -0.47910426
O  -0.37783728 -1.68309277 -1.21015323
C   0.87561823  1.07599934  0.65048042
C   1.40595243 -1.31513378  1.26634130
C   2.22510582 -0.44255144 -0.93646919
C  -0.59769203  1.06685581  1.05392675
O   1.05766572  2.08753989 -0.33479258
C  -1.32151207  0.12257545  0.07723492
H   2.37111554 -1.48078335 -1.24109405
H   1.99457879  0.14632904 -1.82600170
H  -2.41852418  0.15424225 -1.79338050
H   1.39861717 -2.34432029  0.89950585
H  -2.77283092 -1.49501143  0.08139077
H  -1.78718531 -1.39941748  1.55662231
H   2.39095178 -1.10878464  1.69205122
H   0.66171065 -1.22764347  2.06110465
H  -0.68996391  0.69311777  2.07530234
H   3.16644115 -0.08159231 -0.51328294
H   1.53150215  1.27585335  1.50218894
H   1.98949188  2.13764453 -0.56766198
H  -1.01354268  2.07473301  1.03018360
H  -1.34597444  1.55129164 -1.56705752
H  -2.86238947  1.43839135 -0.65797399
H  -3.07876853 -0.21993835  1.27049694

