27
Total Energy                               R     -5.197234506866475E+02
C   1.22032778 -1.32344756  1.26641843
C  -2.21239688  0.84533303 -0.92076393
C  -2.10595169 -0.90781618  0.83380629
N  -0.13863420 -0.43950394 -0.71818989
O  -0.37349981 -1.72250124 -1.25149035
C   1.09065644 -0.33363844  0.09395988
C   0.90415917  1.09155790  0.63862398
C   2.31901728 -0.49083985 -0.79694191
C  -0.58139297  1.11891938  1.01281361
O   1.22869451  2.09718969 -0.32628164
C  -1.27931636  0.12338705  0.05434081
H  -2.64785818 -1.57617760  0.15990187
H   2.43259364 -1.53421116 -1.10541214
H  -2.59735950  0.14844807 -1.67272403
H   1.05767518 -2.34793685  0.92163112
H  -2.84502140 -0.38719147  1.45152103
H  -1.49211360 -1.52234311  1.49477171
H   2.22876972 -1.27111696  1.68812089
H   0.51771759 -1.12382858  2.07724511
H   1.55612328  1.29244485  1.49024910
H   3.22694373 -0.20311989 -0.25766796
H   0.75692033  1.87421941 -1.13750103
H   2.24776550  0.11985734 -1.69952604
H  -0.98252659  2.13220742  0.93196043
H  -1.68371889  1.65051889 -1.44016599
H  -3.07003308  1.28245235 -0.39807306
H  -0.70761251  0.80406534  2.05163138

