27
Total Energy                               R     -5.194281835837941E+02
C  -1.32687918  0.10032691  0.10435991
C  -1.97855048  0.82965892 -1.07413092
C  -2.29042739 -0.89454777  0.74472908
N  -0.17076123 -0.68561910 -0.46572646
O  -0.30430343 -1.52042475 -1.28079290
C   1.15768205 -0.31748285  0.12192307
C   1.36895949 -1.32930431  1.26565586
C   2.24683816 -0.43273026 -0.92564250
C   0.85752510  1.08187051  0.66886384
O   1.08419141  2.01898729 -0.36818119
C  -0.61590523  1.02655016  1.09450639
H  -2.71376933 -1.56628740 -0.00362556
H   2.39201553 -1.47483203 -1.21237820
H  -2.36112839  0.11567911 -1.80514171
H   1.41140867 -2.34054954  0.85955782
H  -3.09912053 -0.31861534  1.19782776
H  -1.79594165 -1.47586772  1.52495720
H   2.32662562 -1.08720647  1.72825712
H   0.58816137 -1.27816155  2.02500570
H   1.51043166  1.28739570  1.51978188
H   3.17409730 -0.06401336 -0.48437185
H   0.83582811  2.89195333 -0.04966994
H   2.02092432  0.15831909 -1.81234046
H  -1.05713870  2.02296327  1.08225369
H  -1.28132739  1.51484966 -1.55666721
H  -2.81358051  1.40515515 -0.67187629
H  -0.69671648  0.63400377  2.10871951

