51
Total Energy                               R     -1.176725172951564E+03
C   0.17772823 -1.04600829  0.63362888
C  -0.46131640 -2.34656881  0.14274438
C   1.34055046 -1.33624000  1.58213037
N   0.64912081 -0.24362217 -0.51710919
O   1.47444447 -0.69151224 -1.36602810
C  -0.10282423  1.01556492 -0.72677542
C   0.86136519  2.20012642 -0.78212447
C  -0.91376628  0.91460034 -2.02201537
C  -0.97738456  1.01868331  0.51024699
C  -1.87557176  2.17758042  0.80648860
N  -2.72146531  1.93684946  1.97178803
C  -0.82690049 -0.09469703  1.22148237
H   0.28533751 -2.98299158 -0.33981470
H  -1.26322648 -2.14184956 -0.56982370
H  -0.88438863 -2.89452058  0.98907467
H   2.10976337 -1.92484427  1.07508886
H   0.98563692 -1.90959656  2.44281914
H   1.78958160 -0.40925939  1.94813727
H   1.57579013  2.06558271 -1.59801382
H   1.41373557  2.30507037  0.15528986
H   0.31025230  3.12624240 -0.96428577
H  -0.24044873  0.79193235 -2.87428282
H  -1.49893721  1.82368976 -2.17854230
H  -1.59705773  0.06302752 -1.98962813
H  -2.45282709  2.41145047 -0.09924526
H  -1.25550112  3.05957478  1.00498955
H  -3.36843588  1.18146722  1.76395843
H  -3.28901673  2.75945516  2.14318317
H  -1.35376486 -0.33307005  2.13784974
N   5.14472005 -0.08820941  0.02078317
C   4.75144588 -1.17380349 -0.92362268
C   6.46732542  0.46699581 -0.38280493
C   4.11789649  0.99275045 -0.01288094
C   5.23656991 -0.64006332  1.40242597
H   7.20421241 -0.33425112 -0.36130280
H   4.71296233 -0.76092594 -1.93010970
H   5.49597879 -1.96648464 -0.86941113
H   3.76891703 -1.54600199 -0.64031242
H   4.26744944 -1.05062256  1.67912416
H   5.99407446 -1.42199846  1.41625346
H   5.51280684  0.16442243  2.08201459
H   4.05368900  1.38035469 -1.02766924
H   3.16192200  0.57194411  0.28683742
H   4.41946226  1.78112945  0.67501873
H   6.38230167  0.87278705 -1.38938830
H   6.74460634  1.25343060  0.31702990
B  -4.70670469 -0.59803573 -0.28026073
F  -4.37417332 -0.65464002  1.09291456
F  -3.95047642 -1.55268465 -0.98770276
F  -6.08131837 -0.87674477 -0.43647216
F  -4.43005900  0.69056752 -0.77730485

