29
Total Energy                               R     -4.837877354515139E+02
C  -0.07952457  0.04764282  1.26380816
C   2.13850615 -0.04609855  0.00000000
C   1.40646840  0.44368178 -1.24207737
N  -0.72974830  0.48505478 -0.00000000
O  -2.08753575  0.12094440 -0.00000000
C  -0.07952457  0.04764282 -1.26380816
C  -0.75221061  0.82489631 -2.40139115
C  -0.23322508 -1.45326347 -1.57917811
C  -0.23322508 -1.45326347  1.57917811
C  -0.75221061  0.82489631  2.40139115
C   1.40646840  0.44368178  1.24207737
H   1.88729902  0.06537115 -2.15246748
H   0.47177113 -2.08230503 -1.03270610
H   2.20319311 -1.13987442  0.00000000
H   1.47646954  1.53909786 -1.28171405
H   3.17124863  0.32081245  0.00000000
H   1.47646954  1.53909786  1.28171405
H  -0.74040155  1.90024760 -2.19282868
H  -0.74040155  1.90024760  2.19282868
H  -1.79190291  0.51514711 -2.52079943
H  -0.22648333  0.65530068 -3.34822906
H  -0.07594521 -1.64207346 -2.64716981
H  -1.24833277 -1.76217326 -1.31831110
H  -1.24833277 -1.76217326  1.31831110
H  -1.79190291  0.51514711  2.52079943
H  -0.07594521 -1.64207346  2.64716981
H  -0.22648333  0.65530068  3.34822906
H   0.47177113 -2.08230503  1.03270610
H   1.88729902  0.06537115  2.15246748

