29
Total Energy                               R     -4.835231682219435E+02
C   1.34322161 -0.07659743  0.02096573
C   1.62781083  0.00015128  1.53240747
C   2.39505398 -0.93632710 -0.66328016
N   0.00000005 -0.77712497 -0.13326573
O   0.00000126 -1.93335098 -0.36979870
C  -1.34322135 -0.07660079  0.02096355
C  -2.39505248 -0.93633987 -0.66327050
C  -1.62780765  0.00016820  1.53240614
C  -1.24450448  1.31085565 -0.63311935
C  -0.00000522  2.09291745 -0.24659224
C   1.24450250  1.31086331 -0.63310740
H   1.02125989  0.74260070  2.04516439
H   2.15485310  1.84306345 -0.34738664
H   2.67527849  0.29155530  1.62897591
H   1.49746702 -0.97208204  2.01189880
H   2.55887611 -1.88259776 -0.14658471
H   2.13805584 -1.13269845 -1.70649708
H  -1.49742746 -0.97204921  2.01191981
H  -2.55886921 -1.88260655 -0.14656554
H  -3.32916622 -0.37221186 -0.64312491
H  -1.02128004  0.74265301  2.04514040
H  -2.67528502  0.29153774  1.62897209
H  -0.00001046  2.33145818  0.82013871
H  -2.15486150  1.84305152 -0.34741092
H  -1.27320788  1.17927273 -1.71945285
H   1.27321831  1.17928706 -1.71944136
H  -2.13805756 -1.13272132 -1.70648636
H  -0.00000546  3.04682050 -0.77911706
H   3.32916507 -0.37219467 -0.64313249

