48
Total Energy                               R     -7.534020572638433E+02
C  -1.56923076  1.38800940  0.01027931
C  -0.83928601  2.63821043 -0.49342478
C  -2.97057948  1.87498206  0.42370640
N  -1.62814659  0.39162160 -1.10979874
O  -0.30431808  0.23088825 -1.62104214
C  -2.13391698 -0.95900675 -0.69562758
C  -3.65216040 -0.94682344 -0.43758557
C  -1.92623100 -1.93705228 -1.85761410
C  -1.38945490 -1.49842851  0.54206968
C  -1.34070512 -0.51619385  1.71200147
N  -0.51830818 -0.99718801  2.83300034
C  -0.82037977  0.83533203  1.24027509
H  -1.36068470  3.07032191 -1.35484954
H   0.18659511  2.42758159 -0.78856960
H  -0.81895942  3.39497650  0.29686940
H  -3.60050345  2.04549223 -0.45354329
H  -2.87518269  2.82784332  0.95224007
H  -3.50030010  1.20295314  1.09519718
H  -4.17341733 -0.36219585 -1.20063229
H  -3.93952578 -0.56166328  0.53812925
H  -4.03169256 -1.97134720 -0.48951267
H  -2.43196596 -1.58093028 -2.76209873
H  -2.35521593 -2.90981913 -1.59841106
H  -0.87329646 -2.08601071 -2.09163667
H  -0.36037407 -1.74736973  0.25868046
H  -1.85928962 -2.43489783  0.86791016
H  -2.35123960 -0.38842502  2.11186422
H   0.42334528 -1.16253667  2.48605266
H  -0.86392299 -1.90946988  3.11763947
H   0.24303094  0.73313681  0.99629128
H  -0.88637202  1.56204897  2.05824455
N   3.55426321 -0.07096797 -0.13393661
C   2.61927909 -1.04524632  0.49705557
C   3.51762216 -0.24243497 -1.61454093
C   3.13246891  1.31601247  0.21407712
C   4.93761453 -0.31041389  0.36419142
H   3.83163681 -1.25660695 -1.85611649
H   1.62268549 -0.86720320  0.09887860
H   2.94740162 -2.05415610  0.25272392
H   2.63347459 -0.89439553  1.57521339
H   4.94786648 -0.17590911  1.44441847
H   5.23133802 -1.32718455  0.10962636
H   5.60866406  0.40434637 -0.10907949
H   2.12832606  1.47987757 -0.17174890
H   3.14226035  1.42309629  1.29740107
H   3.82992351  2.01728853 -0.24101320
H   2.49905142 -0.07102143 -1.95934998
H   4.19598688  0.47913548 -2.06651505

