48
Total Energy                               R     -7.532986565800747E+02
C   1.36837231  1.33636484 -0.28772944
C   1.23718583  2.38451243 -1.39262779
C   0.50806407  1.75946928  0.91010891
N   0.86610489  0.03367189 -0.82098977
O  -0.26078024  0.06733127 -1.42147700
C   1.31949388 -1.30561218 -0.33823240
C   0.45052330 -1.74204724  0.84868100
C   1.14660101 -2.30722516 -1.47970328
C   2.80011046 -1.24287088  0.05208396
C   3.17407282 -0.03514615  0.90306833
N   4.58880658 -0.01462673  1.28651993
C   2.84427415  1.21457971  0.10727294
H   0.19380038  2.59252562 -1.63386170
H   1.75206671  2.06537398 -2.30236129
H   1.69725257  3.31484734 -1.05023625
H  -0.54360657  1.82378274  0.62295008
H   0.82665946  2.74971343  1.24573511
H   0.59851603  1.07279444  1.75312047
H  -0.60210026 -1.77887138  0.56191067
H   0.55338242 -1.07900442  1.70882075
H   0.75036958 -2.74648092  1.15861172
H   0.09547226 -2.46387564 -1.72682905
H   1.56829380 -3.26720935 -1.17136319
H   1.67405690 -1.97693678 -2.37818119
H   3.41204734 -1.21786933 -0.85846240
H   3.04571356 -2.17089340  0.57757808
H   2.59490620 -0.04467337  1.83079300
H   5.15173390 -0.04095406  0.43977417
H   4.80244751 -0.87452586  1.78286681
H   3.45924864  1.21298331 -0.80179718
H   3.11133052  2.11152582  0.67267316
N  -3.70566320 -0.00845921  0.27339469
C  -2.84884427 -0.01087446  1.49290253
C  -3.34643952 -1.16883848 -0.59194617
C  -5.13719185 -0.10889140  0.67398514
C  -3.48786702  1.25814394 -0.48253583
H  -2.30757143 -1.06484545 -0.90052884
H  -3.01346633 -0.94076435  2.03489410
H  -1.80912457  0.06660231  1.18774580
H  -3.12277057  0.84093195  2.11335531
H  -3.75500201  2.09736100  0.15734863
H  -2.43894117  1.31855616 -0.76761992
H  -4.11843336  1.24720283 -1.37018216
H  -5.28318766 -1.03900972  1.22063669
H  -5.38281864  0.74187759  1.30732024
H  -5.75445312 -0.09997989 -0.22245949
H  -3.48509617 -2.08567730 -0.02145918
H  -3.99935281 -1.16664463 -1.46341828

