32
Total Energy                               R     -9.440772247189902E+02
C   1.41178015  1.37253140  0.09981866
C   2.00526999  2.17173773 -1.06399899
C   0.27495454  2.14148449  0.77034697
N   0.82116314  0.11843290 -0.49537827
O   0.00902950  0.13767487 -1.34388491
C   1.36388562 -1.14517230  0.09161150
C   0.36732549 -1.51520859  1.20910029
C   1.43807890 -2.22140722 -0.97106875
C   2.69982682 -0.66544206  0.70113969
O   3.81650318 -0.87039715 -0.13990915
C   2.44956020  0.80652247  1.07555790
H   1.22160145  2.47574758 -1.75940423
H   2.76879481  1.61034665 -1.60509203
H   2.46721843  3.06395059 -0.63939060
H  -0.47317708  2.44917224  0.03869485
H   0.71125820  3.03289844  1.22459719
H  -0.19713303  1.54631113  1.55267471
H  -0.62047110 -1.69189794  0.78437630
H   0.29720263 -0.74536153  1.97833320
H   0.73753317 -2.43497594  1.66406091
H   0.43795855 -2.49884584 -1.30629183
H   1.91061819 -3.09882757 -0.52735564
H   2.03103485 -1.90065372 -1.82813352
H   2.90444477 -1.25975900  1.58935611
H   3.76821090 -0.32657099 -0.93287126
H   3.37830650  1.37360605  1.02807868
H   2.07031117  0.86344043  2.09625322
B  -3.21433622 -0.07498926  0.01256194
F  -2.92326202  0.98977835 -0.86459549
F  -2.63671431  0.18175474  1.27265242
F  -4.61280071 -0.19888377  0.15346766
F  -2.68928129 -1.27500066 -0.51238447

