55
Total Energy                               R     -1.424376351605879E+03
C   0.56027630  0.06909448 -1.00184560
C   1.21411521 -0.77147171 -2.10003953
C  -0.00310249  1.35406919 -1.62940910
N   1.54558622  0.28403811  0.09001975
O   2.43627433  1.32377531 -0.13700951
C   0.83931464  0.35887135  1.39423594
C   1.74392108 -0.21704954  2.48562474
C   0.39797775  1.77197273  1.81045689
C  -0.36063939 -0.50941233  1.11505940
C  -0.52095389 -0.67576757 -0.25899358
C  -1.57802453 -1.41334839 -0.75886273
C  -2.48819782 -1.99031421  0.13429930
C  -3.61628448 -2.77153017 -0.42412383
O  -3.80296771 -2.97146277 -1.60389932
O  -4.44362699 -3.25866229  0.51256169
C  -2.32616763 -1.82031405  1.51278675
C  -1.25745248 -1.08045860  2.00760384
H   2.07434565 -0.23516234 -2.51242962
H   0.51741829 -0.97391591 -2.92023669
H   1.56632130 -1.72771162 -1.70228560
H   0.82062758  1.96778138 -2.00033003
H  -0.57607401  1.94690389 -0.91553913
H  -0.66520860  1.10895454 -2.46574621
H   2.66160640  0.37462540  2.55460966
H   2.01983891 -1.25089291  2.25863980
H   1.25514245 -0.19695911  3.46524706
H   1.27296064  2.42409242  1.85338363
H  -0.07499220  1.74758101  2.79749879
H  -0.31498929  2.20764959  1.10913744
H  -1.71604325 -1.54596257 -1.82701744
H  -5.14945794 -3.75099306  0.07085502
H  -3.03548669 -2.26669120  2.19952452
H  -1.13758657 -0.95065539  3.07899399
N   5.40471747 -0.22752976 -0.26970430
C   5.31575162  0.73669855  0.86608100
C   4.40330089 -1.31296545 -0.05624226
C   5.07256258  0.49060472 -1.53570487
C   6.77162893 -0.80428770 -0.34865936
H   4.65039089 -1.83118058  0.87038174
H   4.29563685  1.13590658  0.85598902
H   5.53170058  0.20237800  1.79107317
H   6.05354800  1.52367035  0.71024698
H   7.48667435  0.00264481 -0.50274805
H   6.98949881 -1.32292840  0.58415786
H   6.81110148 -1.50334949 -1.18322089
H   4.06320712  0.89698869 -1.40699329
H   5.80533145  1.28335048 -1.68627653
H   5.11959190 -0.22082324 -2.36003004
H   3.41017423 -0.85975866  0.00413469
H   4.46329233 -2.00708685 -0.89442007
B  -3.68893747  2.29432965 -0.24436273
F  -5.04671864  2.63321960 -0.04372549
F  -3.58329225  1.43330047 -1.35505641
F  -2.94659258  3.47072173 -0.48589696
F  -3.19357474  1.65373461  0.90758784

