55
Total Energy                               R     -1.424279242731782E+03
C  -0.43093869 -0.43317959 -1.14403474
C  -1.51071671  0.36512096 -1.87297768
C   0.37578249 -1.29135240 -2.11864491
N  -1.04908299 -1.29542737 -0.10515195
O  -1.81822437 -2.25359516 -0.40219748
C  -0.53377201 -1.10322407  1.27346102
C  -1.68687563 -0.78947510  2.22528177
C   0.22995916 -2.35078904  1.72168668
C   0.38201984  0.07269820  1.05851031
C   0.44500529  0.43834155 -0.28108923
C   1.24322345  1.49252781 -0.68688525
C   1.98568361  2.18537946  0.27074788
C   2.83911307  3.31002883 -0.18857721
O   2.92926348  3.68010209 -1.33685654
O   3.51844243  3.89802428  0.80396383
C   1.91948964  1.81727945  1.61851371
C   1.11546767  0.75769194  2.01717630
H  -2.22639708 -0.30958809 -2.34930007
H  -1.05323284  0.98408491 -2.64904965
H  -2.04694598  1.01990736 -1.18189325
H  -0.28816131 -1.96219346 -2.66930740
H   1.12088375 -1.88791730 -1.58875291
H   0.89178246 -0.64953697 -2.83707220
H  -2.39293956 -1.62296589  2.24838573
H  -2.21854953  0.11447451  1.91797670
H  -1.30161123 -0.63882648  3.23683688
H  -0.44678728 -3.20696392  1.77527711
H   0.65937139 -2.18640378  2.71310332
H   1.03982496 -2.58308514  1.02696127
H   1.30241374  1.78117058 -1.73072884
H   4.05200080  4.61579691  0.43122078
H   2.50028319  2.35712521  2.35637985
H   1.06948067  0.47030675  3.06251903
N  -5.57155218  0.35986820 -0.13733157
C  -5.34844281  1.13000616 -1.39420700
C  -4.57403529 -0.74608715 -0.05009586
C  -5.40606719  1.26398389  1.03611235
C  -6.94978671 -0.20727193 -0.14016521
H  -4.68915503 -1.39156232 -0.91829731
H  -4.34105548  1.54124654 -1.37858947
H  -5.46588385  0.45631319 -2.24132093
H  -6.08240012  1.93270136 -1.44667836
H  -7.66389860  0.61201747 -0.20524089
H  -7.05272295 -0.86692267 -1.00014919
H  -7.09963667 -0.76537481  0.78251469
H  -4.39617460  1.67049737  1.02325317
H  -6.13681573  2.06799122  0.96421912
H  -5.56754255  0.68796526  1.94572036
H  -3.57928848 -0.31220360 -0.03472270
H  -4.75428348 -1.30693132  0.86537739
B   4.16570414 -1.75744540 -0.31701815
F   5.54168578 -2.07461039 -0.36588932
F   3.86763362 -0.81615276 -1.32304466
F   3.40952913 -2.93028287 -0.52832858
F   3.85635805 -1.21798789  0.94789333

