55
Total Energy                               R     -1.424091778923728E+03
C   0.58493398  0.24855321 -1.24715691
C   1.45956608 -0.61694922 -2.16180724
C  -0.04090543  1.42643020 -1.98949847
N   1.47990223  0.80234875 -0.16282099
O   2.31319292  1.59879671 -0.37227653
C   1.19622123  0.25770384  1.21820945
C   2.40773028 -0.58044968  1.63735898
C   0.95999448  1.44282346  2.15183858
C  -0.03074177 -0.56052407  0.93348276
C  -0.37161864 -0.55550623 -0.41160515
C  -1.48042177 -1.24623780 -0.86374763
C  -2.25129221 -1.94712067  0.06175216
C  -3.46854226 -2.64237047 -0.43550775
O  -3.81591406 -2.66547595 -1.59280077
O  -4.16137874 -3.24402904  0.53580766
C  -1.90111202 -1.95984503  1.41494821
C  -0.78523896 -1.26458018  1.85931655
H   2.20675871 -0.00662219 -2.67014218
H   0.79570441 -1.06046855 -2.90633231
H   1.94824639 -1.41654733 -1.60437543
H   0.72134526  1.99548505 -2.52380425
H  -0.58228053  2.08463952 -1.30734107
H  -0.74302744  1.01873845 -2.71869824
H   3.29351254  0.04814416  1.72685073
H   2.59453251 -1.39015857  0.93153162
H   2.17542047 -1.00918953  2.61389936
H   1.86829341  2.03777347  2.25825779
H   0.69281229  1.03835167  3.12949298
H   0.14224841  2.07215659  1.79592486
H  -1.75674504 -1.23937102 -1.91194246
H  -4.93534318 -3.67786002  0.14563594
H  -2.50796771 -2.50611311  2.12604670
H  -0.51501135 -1.26857128  2.90933984
N  -4.13087183  1.95439965  0.06739019
C  -3.43459166  3.27225900  0.04696513
C  -3.94428259  1.27596627 -1.24669132
C  -3.55260001  1.10792844  1.14968912
C  -5.58593077  2.15814753  0.32050030
H  -4.38349454  1.89737096 -2.02537723
H  -2.37353338  3.09931057 -0.12668942
H  -3.85425095  3.87740977 -0.75480621
H  -3.58461966  3.76173763  1.00776720
H  -5.70704562  2.65101544  1.28358936
H  -5.99522965  2.77867240 -0.47487485
H  -6.07636697  1.18618547  0.33049652
H  -2.49111320  0.97099496  0.95292092
H  -3.69753501  1.61472829  2.10239168
H  -4.06406343  0.14737314  1.15182517
H  -2.87879866  1.14843823 -1.42433142
H  -4.43939258  0.30722916 -1.21453184
B   5.59541918 -0.09414156 -0.12921642
F   5.64585786 -1.33361773  0.54287423
F   5.50744585  0.95004250  0.81480320
F   6.76484361  0.06995400 -0.90155038
F   4.46767795 -0.06405541 -0.97643256

