31
Total Energy                               R     -8.688572523584417E+02
C   1.40037264 -1.30318764 -0.10966330
C   2.52466882 -2.01606675  0.66209798
C   0.10465127 -2.09118260 -0.07772457
N   1.22149151  0.00111436  0.61854521
O   0.68702635  0.08795603  1.66064501
C   1.80899941  1.18376470 -0.10631865
C   0.59792103  1.97270717 -0.62732249
C   2.64053612  1.99990784  0.86730554
C   2.58925786  0.49723177 -1.22857031
C   1.84855199 -0.81784477 -1.48794969
H   2.20827643 -2.22762034  1.68489737
H   3.44674317 -1.43308099  0.68360452
H   2.71815077 -2.95653446  0.14413716
H  -0.20283735 -2.31553113  0.94474634
H   0.28026846 -3.03323749 -0.60065172
H  -0.69057211 -1.55140636 -0.59143186
H  -0.00671080  2.34015350  0.20251359
H  -0.02679280  1.37423712 -1.29148712
H   0.99300091  2.82234935 -1.18643523
H   2.02318049  2.42630353  1.65936034
H   3.09681438  2.81732454  0.30590148
H   3.43537821  1.39444272  1.30720153
H   3.61575204  0.31135993 -0.90621100
H   2.61869768  1.13476341 -2.11122086
H   2.48330047 -1.56434575 -1.96373730
H   0.97447808 -0.65504890 -2.12212661
B  -2.97777662  0.09434181 -0.02668798
F  -2.36488051  0.19329287 -1.29416481
F  -2.06387837  0.48518433  0.97261973
F  -4.10770777  0.93741750  0.01416977
F  -3.37627235 -1.24025745  0.19718373

