43
Total Energy                               R     -6.587396946762215E+02
C  -1.68413330  1.24245727 -0.09146964
C  -2.74446663  1.72881331  0.91143720
C  -0.62819717  2.32965618 -0.26705884
N  -1.02376185 -0.03046063  0.25866898
O  -0.51122461 -0.07710715  1.56903453
C  -1.92163373 -1.16555930 -0.08918068
C  -1.06225347 -2.29872702 -0.65792260
C  -2.73862174 -1.72312846  1.08385964
C  -2.85522715 -0.56474939 -1.16899284
C  -2.33265901  0.85338787 -1.42212621
H  -2.32978448  1.78430864  1.92175607
H  -3.62005832  1.07631169  0.94194837
H  -3.09142052  2.73014205  0.63726738
H  -0.11979005  2.54449910  0.67857524
H  -1.08148749  3.26149081 -0.62070476
H   0.12527094  2.01885541 -0.99658255
H  -0.31797626 -2.62471831  0.07610141
H  -0.53063976 -1.97038910 -1.55652491
H  -1.67609912 -3.16706709 -0.92184201
H  -2.10124597 -2.21528207  1.82289725
H  -3.44790750 -2.46867264  0.70898338
H  -3.31091652 -0.94673426  1.59609174
H  -3.88217088 -0.52727831 -0.79426800
H  -2.87095064 -1.17039707 -2.07911407
H  -3.12186870  1.54994337 -1.71839463
H  -1.57511064  0.85359987 -2.21269489
N   3.25705094 -0.05455670 -0.03829369
C   3.13015184  0.12114701  1.43600224
C   3.24562213  1.28207011 -0.69569740
C   4.53718237 -0.75048049 -0.34740114
C   2.11024787 -0.86532022 -0.54454941
H   2.31676297  1.78733399 -0.43907134
H   3.97190125  0.71319295  1.79170226
H   2.19112349  0.63056510  1.64565174
H   3.13489052 -0.86087495  1.90595902
H   2.13215994 -1.83660719 -0.05268910
H   1.17193786 -0.35333214 -0.32091148
H   2.22793551 -0.99056944 -1.62028767
H   5.36377826 -0.14945537  0.02803807
H   4.53133251 -1.72516427  0.13738593
H   4.61912848 -0.86938704 -1.42655547
H   4.09734759  1.85710165 -0.33573914
H   3.31455868  1.14316186 -1.77328311

