17
Total Energy                               R     -2.142335134866533E+02
N   0.00000000  0.00000000  0.00000000
C   0.86085922  0.86085922  0.86085922
C  -0.86085922 -0.86085922  0.86085922
C  -0.86085922  0.86085922 -0.86085922
C   0.86085922 -0.86085922 -0.86085922
H  -0.22114456 -1.48374793  1.48374793
H   0.22114456  1.48374793  1.48374793
H   1.48374793  0.22114456  1.48374793
H   1.48374793  1.48374793  0.22114456
H   1.48374793 -0.22114456 -1.48374793
H   1.48374793 -1.48374793 -0.22114456
H   0.22114456 -1.48374793 -1.48374793
H  -1.48374793  1.48374793 -0.22114456
H  -0.22114456  1.48374793 -1.48374793
H  -1.48374793  0.22114456 -1.48374793
H  -1.48374793 -0.22114456  1.48374793
H  -1.48374793 -1.48374793  0.22114456

