36
Total Energy                               R     -9.737534120265998E+02
C   1.85198907 -0.93466964  0.02957137
C   3.33580532 -0.83150989  0.09495476
C   1.24044692 -2.18806489  0.02148684
N  -2.60327930  0.39691665 -0.12813397
O   3.95709065 -1.97836911 -0.16582504
C   1.07813369  0.23497976  0.02555708
C   1.72034381  1.59533690 -0.00130128
C  -0.13993738 -2.30148351  0.00453273
C  -0.30719605  0.11556570  0.02673084
C  -0.89636890 -1.14440760  0.00599115
C  -3.03605369 -1.75770404 -1.23356036
C  -1.27478727  2.22440377 -1.10063475
C  -2.39560247 -1.08802600 -0.02087681
C  -3.04058515 -1.53508451  1.29800973
O   2.15945030  1.91108408 -1.21428028
O  -3.65545308  0.88194764 -0.29859248
C  -1.34454091  1.21750560  0.04281556
C  -1.50402224  1.89983231  1.41219417
O   1.76791123  2.33680222  0.95141192
O   3.92850650  0.18980837  0.37184898
H   4.91313438 -1.85441667 -0.07950877
H   2.56848021  2.78941712 -1.19708352
H  -1.14987887  1.72250577 -2.06065994
H   1.85083423 -3.08137083  0.03374571
H  -2.59984229 -1.38968561 -2.16314696
H  -2.84842521 -2.82925732 -1.15322036
H  -1.61566202  1.16509363  2.21076348
H  -0.60662197  2.48934062  1.59481591
H  -0.42680758  2.88753290 -0.92979767
H  -2.85749572 -2.60612079  1.39605281
H  -0.61446787 -3.27565692 -0.00737079
H  -2.59819849 -1.02014431  2.15158299
H  -4.11344451 -1.58898946 -1.23466888
H  -2.17744381  2.83626023 -1.11461532
H  -4.11617336 -1.35525606  1.26840027
H  -2.37082514  2.56210170  1.39231782

