36
Total Energy                               R     -9.739476868697736E+02
C   1.24089491 -2.18723441  0.03224710
C   3.33375219 -0.83124729  0.09888683
C  -3.00380350 -1.80843955 -1.22785445
N  -2.58570533  0.39115034 -0.19839550
O   3.95721055 -1.98347889 -0.14463475
C  -0.14028559 -2.29779541  0.01085066
C   1.85282567 -0.93365918  0.03779339
C  -3.03424166 -1.53612954  1.27857851
C  -0.31241029  0.12055289  0.02628786
C  -0.90165825 -1.14247542  0.00470651
C  -2.40329082 -1.06858918 -0.03576911
C  -1.23200999  2.23847925 -1.08735587
C  -1.36676694  1.21241199  0.03457317
C  -1.49505664  1.89684783  1.40041761
O   2.14575671  1.91096042 -1.22158320
O  -3.73796377  0.91561966 -0.23181788
C   1.07389615  0.23522617  0.03022365
C   1.71700777  1.59314318 -0.00288905
O   1.78457011  2.33741839  0.94746733
O   3.93393258  0.19230702  0.35612314
H   4.91267247 -1.85454742 -0.06202737
H   2.55478169  2.78907879 -1.20514743
H  -2.54672291 -1.48349544 -2.16509302
H  -0.61230733 -3.27388496 -0.00161069
H  -4.08025274 -1.62968888 -1.27681153
H  -2.84148415 -2.88241312 -1.11369699
H   1.85139371 -3.08070037  0.04840353
H  -0.61465188  2.50742701  1.60065257
H  -0.40762711  2.92453768 -0.88679900
H  -4.11357227 -1.36919983  1.25649077
H  -2.85224434 -2.60520957  1.40952905
H  -2.60976317 -1.00295279  2.13184701
H  -1.06219573  1.75349176 -2.05084308
H  -2.14567168  2.83393388 -1.14603562
H  -2.37374541  2.54604194  1.40129727
H  -1.59983922  1.16036823  2.19999488

