58
Total Energy                               R     -1.612957707500213E+03
C   0.54035894 -1.76788966 -1.13544231
C   0.46760394 -2.85828331 -2.20362999
C   1.27508316 -0.54988681 -1.72392677
N   1.11193841 -2.33449592  0.11647831
O   2.51667914 -2.37628089  0.13117056
C   0.51639797 -1.65079504  1.29760951
C   0.41231176 -2.63959980  2.45831158
C   1.25075003 -0.39156991  1.78855678
C  -0.82863472 -1.26299539  0.74017796
C  -0.81756749 -1.33824316 -0.64567697
C  -1.93582675 -0.98338004 -1.38416567
C  -3.06977784 -0.53122839 -0.71650844
C  -4.21224368 -0.07830078 -1.56722682
O  -4.82389752 -0.80227433 -2.32238459
O  -4.42842990  1.23392880 -1.47750547
C  -3.08720388 -0.45846625  0.68450278
C  -4.33030254 -0.06150279  1.38783845
O  -5.44219025 -0.13726103  0.90341802
O  -4.11862658  0.37962781  2.62898651
C  -1.95640296 -0.83024799  1.41426862
H   1.47492193 -3.20782602 -2.44915021
H   0.01245776 -2.48011849 -3.12397291
H  -0.11809644 -3.71244897 -1.85411684
H   2.30163335 -0.80997434 -1.99234704
H   1.30055432  0.29330731 -1.03472859
H   0.76131324 -0.21878783 -2.63124280
H   1.41127142 -2.97134072  2.75744490
H  -0.17194244 -3.51862758  2.17395263
H  -0.06035882 -2.17761790  3.33036158
H   0.72997024  0.01643073  2.65983635
H   1.28583371  0.39144661  1.03218238
H   2.27348691 -0.63337584  2.08824769
H  -1.92532559 -1.02175431 -2.46883184
H  -5.16830279  1.48464037 -2.04975164
H  -4.96645895  0.59313475  3.04315167
H  -1.97113543 -0.78528921  2.49704770
N   5.36102654  0.47844331 -0.08042734
C   5.40370949 -0.45816710 -1.23973970
C   6.44880713  1.48690571 -0.21227441
C   4.03909139  1.16693692 -0.05162667
C   5.53865736 -0.29158371  1.18386989
H   7.40627095  0.96909225 -0.23066455
H   5.25731506  0.11265531 -2.15514644
H   6.37496817 -0.95011126 -1.25409556
H   4.60896654 -1.19318989 -1.12199849
H   4.73605416 -1.02424895  1.25868290
H   6.50537633 -0.79163867  1.15613562
H   5.49676488  0.40039061  2.02338633
H   3.90991036  1.71710252 -0.98182989
H   3.26918126  0.40830247  0.04974133
H   4.01768653  1.84714664  0.79790328
H   6.30257424  2.03911363 -1.13910700
H   6.40377134  2.16393652  0.63899102
B  -0.25238083  2.93944256 -0.01528043
F  -0.80106011  2.42310358  1.17542088
F   1.14658223  2.75176972 -0.01283448
F  -0.81613109  2.27798202 -1.12407481
F  -0.53657540  4.32077444 -0.10018085

