42
Total Energy                               R     -1.127569619068383E+03
C   2.45950268 -1.45959437 -0.06728362
C   3.78389152 -2.12762057 -0.10090159
C   1.29139972 -2.17409161 -0.07141260
N  -0.02158005  2.72275099 -0.32482585
O   3.71013013 -3.46016541 -0.12520944
C   1.24591273  0.64579832  0.01272223
C   2.42729646 -0.04652879 -0.00846676
C   2.40547040  2.84055114 -0.47981752
C   1.23839907  2.15007946  0.22583213
C   0.01762025 -0.07403932 -0.03282264
C   0.05069006 -1.49718785 -0.04367964
C  -1.15280136 -2.23394803 -0.01241045
C  -2.35521857 -1.57590612  0.03369218
C  -3.64486756 -2.30778637  0.09378057
O  -4.73114372 -1.76775539  0.15651521
O  -3.50606286 -3.63510419  0.07375620
C  -2.38938631 -0.16511882  0.00460343
C  -1.24118670  0.58444184 -0.05022335
C  -2.13935682  2.42523123 -1.46912204
C  -1.36253859  2.09319867 -0.18597158
C  -2.07705875  2.70225995  1.03124600
O  -0.03153801  3.97784823 -0.54222044
O   4.84417931 -1.53470744 -0.10677371
C   1.30023544  2.43754346  1.73718983
H   4.60273809 -3.83228514 -0.14524736
H   2.36077255  3.91644704 -0.32048837
H   2.39454468  2.64056678 -1.55365277
H   1.29466018 -3.25732926 -0.09171272
H  -1.10274365 -3.31622637 -0.01623430
H  -3.35851192  0.31895965  0.00850261
H   0.53659063  1.88189938  2.28410660
H  -3.10707704  2.34361239  1.07274273
H  -1.58358575  2.43297547  1.96592517
H   3.37430396  0.47374949  0.04264936
H   2.27793121  2.13641939  2.11992351
H   3.35287217  2.49321496 -0.06953975
H  -4.37752420 -4.05303232  0.11437792
H  -1.64237890  2.00097497 -2.34475495
H  -3.14824746  2.01548819 -1.41170849
H  -2.22088472  3.50486645 -1.59588675
H  -2.10019347  3.78983919  0.94224634
H   1.16525315  3.50598310  1.92226214

