42
Total Energy                               R     -1.127684568312669E+03
C  -2.42327579 -0.09894915 -0.01607042
C  -2.41049986  2.74123171 -0.64700516
C  -3.72461870 -2.26845357 -0.05391558
N   0.00565239  2.62630264 -0.56168873
O  -3.80583673 -3.48125157 -0.07200167
C  -2.44706986 -1.51516175 -0.04925905
C  -1.27437011 -2.22215119 -0.06785968
C   1.17164118 -2.26452162 -0.03599463
C  -0.03802939 -1.53890875 -0.06125014
C  -0.01479909 -0.11436082 -0.06022418
C  -1.24552445  0.60408264 -0.02476045
C  -1.22261214  2.12108662  0.10210136
C   1.30844298  2.08041276 -0.10699368
C  -1.37133160  2.46760580  1.60230943
O  -4.80717894 -1.48542234 -0.03732290
O   0.04335040  4.03776862 -0.50929222
C   1.80581084  2.58958930  1.26428618
C   1.23757991  0.56002006 -0.06511537
C   2.33878134  2.50224091 -1.17026223
C   2.39167736 -0.18352543 -0.01335865
C   3.62054446 -2.39139873  0.04878321
O   3.66184089 -3.60613119  0.06388882
O   4.72739659 -1.64362392  0.07077261
C   2.36881078 -1.59703626  0.00348755
H  -2.38426878  2.48052031 -1.70894947
H  -2.37840288  3.82646102 -0.55734825
H  -3.36480498  2.41124262 -0.23381136
H  -5.60130834 -2.03773308 -0.04214068
H  -3.36777712  0.42463369  0.02957977
H  -0.73095421  1.85320587  2.23614866
H  -1.28098627 -3.30645238 -0.08028295
H   1.25188682  2.16147642  2.09914158
H   1.14069352 -3.34851560 -0.03819227
H   2.37647802  3.58916904 -1.24282088
H   3.34304748  2.15524724 -0.92077731
H   2.06959117  2.09974571 -2.15078489
H  -2.40343256  2.29687595  1.92121080
H  -1.13215813  3.51934538  1.77822241
H   1.72834907  3.67678665  1.31549829
H   2.85712535  2.32001245  1.39753046
H   5.50216217 -2.22213914  0.09551321
H   3.35166828  0.31446750  0.01233564

