30
Total Energy                               R     -6.074030710036030E+02
C  -2.02076858  1.37116944  0.00075576
C  -2.13659132  2.18817390  1.29133724
C  -2.10799027  2.24418943 -1.25246281
N  -3.18752407  0.41475994 -0.02715695
O  -4.30344181  0.77665507 -0.06395001
C  -2.80350616 -1.04408531  0.00192477
C  -3.36913712 -1.62960886  1.30069987
C  -3.39505850 -1.70689583 -1.24317239
C  -1.30541104 -0.92466235 -0.00714522
C  -0.87853077  0.39395754 -0.00336263
C   0.46985074  0.71567756 -0.00117426
C   1.38109138 -0.33424332 -0.00372497
I   3.44095749  0.09782411 -0.00032825
C   0.96708738 -1.66542845 -0.00866340
C  -0.39021114 -1.96535393 -0.01029745
H  -3.03174875  2.81198619  1.27297316
H  -1.25928820  2.83507448  1.34293445
H  -2.14959014  1.54106107  2.16988722
H  -3.00357015  2.86702769 -1.22706767
H  -2.10148507  1.63640100 -2.15878740
H  -1.23094246  2.89347758 -1.25774925
H  -4.46015746 -1.60695587  1.28929325
H  -2.99297182 -1.09320820  2.17340986
H  -3.03898042 -2.66824752  1.35581247
H  -4.48557072 -1.68976471 -1.20839151
H  -3.06129752 -2.74583500 -1.24585642
H  -3.04288331 -1.22088241 -2.15454260
H   0.79005007  1.75130052  0.00249535
H   1.69152994 -2.47116793 -0.01071729
H  -0.71858556 -2.99884374 -0.01288459

