29
Total Energy                               R     -3.057101375081352E+03
C   1.19978397 -1.34569137  0.02318169
C   1.85769699 -2.37627834 -0.88362387
C   1.49072825 -1.67438378  1.50015252
N   1.86153453 -0.00152782 -0.25181472
O   2.96743545 -0.00261338 -0.65995046
C   1.20432113  1.34375866  0.02572402
C   1.52007944  1.67320659  1.49700018
C   1.85141069  2.37213105 -0.89178171
C  -0.30365038  1.24634438 -0.25582265
C  -0.94018236 -0.00197988  0.32272071
Br  -2.86710261  0.00176261 -0.07965057
C  -0.30392921 -1.24148213 -0.27558913
H   2.89678723 -2.55994852 -0.61073604
H   1.80239997 -2.07879813 -1.93287360
H   1.30403742 -3.30873621 -0.76192526
H   2.55547989 -1.58173899  1.72177942
H   1.19864689 -2.71652685  1.64077785
H   0.92033602 -1.06355056  2.19660898
H   2.59308655  1.61525420  1.68859679
H   0.99156600  1.03854907  2.20467491
H   1.19674481  2.70403913  1.65210450
H   2.89439469  2.55523109 -0.63427798
H   1.30033990  3.30538545 -0.76367144
H   1.78006833  2.07308537 -1.93965453
H  -0.45860677  1.26674831 -1.33796527
H  -0.74843210  2.15087433  0.16237226
H  -0.90307561 -0.01028422  1.41004946
H  -0.44855749 -1.24088826 -1.35944386
H  -0.75440094 -2.15253594  0.12189004

