51
Total Energy                               R     -1.122407829680757E+03
C   1.67569856 -0.93451421 -1.06963628
C   0.29394202 -1.53334843 -1.27596319
C   1.90944744  0.19470368 -2.08794000
N   1.69789259 -0.29300453  0.31029392
O   0.66875945 -0.03746559  0.82329775
C   2.97759385  0.05640276  1.05651450
C   3.47661457  1.39321532  0.48118409
C   2.61925387  0.22620073  2.52403452
C   3.98243331 -1.08854690  0.85357566
C   4.11840264 -1.55020779 -0.58884483
C   2.76974653 -2.01185000 -1.11647275
H  -0.47000229 -0.76228589 -1.36240392
H   0.02765578 -2.22006668 -0.47032134
H   0.32366719 -2.09450445 -2.21154249
H   1.26220794  1.04841227 -1.88397443
H   1.64196093 -0.21650328 -3.06295172
H   2.94397979  0.52542063 -2.13233691
H   2.67064899  2.12716277  0.43634082
H   3.93158194  1.29218334 -0.50100751
H   4.23773750  1.75731588  1.17344853
H   1.99065370  1.10086610  2.69390327
H   3.55463888  0.36669165  3.06823681
H   2.12042821 -0.66030822  2.92091146
H   3.67221574 -1.93099706  1.47960942
H   4.93519321 -0.72695280  1.24716537
H   4.82102311 -2.38560057 -0.62905583
H   4.53818308 -0.76050059 -1.21736423
H   2.42560360 -2.87573410 -0.53902002
H   2.83713681 -2.32672665 -2.16040529
N  -3.65544776 -1.41013364  0.32072985
C  -2.41100662 -1.05277333  1.05933651
C  -4.44175010 -2.39672841  1.11352541
C  -4.46985350 -0.17977598  0.10550262
C  -3.29580390 -2.00354931 -0.99910331
H  -3.83498216 -3.28804531  1.26309528
H  -2.68809147 -0.62551698  2.02158022
H  -1.81992067 -1.95514058  1.20431164
H  -1.86146667 -0.32564618  0.47012755
H  -2.74638927 -1.26376453 -1.57737948
H  -2.67975543 -2.88527670 -0.83144051
H  -4.21286168 -2.27831120 -1.51790376
H  -4.72552112  0.24359491  1.07521182
H  -3.88139836  0.53117831 -0.47110442
H  -5.37430497 -0.44973810 -0.43701673
H  -4.69551173 -1.94986218  2.07328887
H  -5.34750627 -2.64632866  0.56347457
B  -1.23116926  2.51580314 -0.29228686
F  -1.56591817  1.47980460 -1.19051960
F  -1.77373751  2.23146885  0.97730592
F   0.17246809  2.61707531 -0.19167378
F  -1.75686347  3.73412815 -0.76865352

