51
Total Energy                               R     -1.122592096617658E+03
C  -1.53516904 -1.23535653 -1.07699083
C  -0.15629975 -1.16714910 -1.73104931
C  -2.01485214 -2.69373275 -1.07051174
N  -1.40537552 -0.75262410  0.33037069
O  -0.40091108 -1.18678104  0.98871171
C  -2.54300277 -0.21187300  1.13423132
C  -3.29474128 -1.37843137  1.79051660
C  -1.96585950  0.69277021  2.22164768
C  -3.47381886  0.61526854  0.23689467
C  -3.79862363 -0.05253560 -1.09064936
C  -2.50657533 -0.32985734 -1.84412928
H   0.52992714 -1.90358282 -1.31348042
H   0.28662300 -0.17623840 -1.61830775
H  -0.26613046 -1.37287070 -2.79902294
H  -1.38679321 -3.29906433 -0.41220776
H  -1.93672467 -3.09971594 -2.08260500
H  -3.05189318 -2.79470421 -0.74855736
H  -2.59832239 -2.03635157  2.31616648
H  -3.85511094 -1.97324318  1.06811046
H  -4.00486305 -0.98123953  2.52064771
H  -1.39657167  0.13108349  2.96341489
H  -2.79016297  1.19424816  2.73504735
H  -1.31767185  1.45897720  1.79036318
H  -3.00335467  1.58451516  0.03822125
H  -4.38394918  0.81945210  0.80834832
H  -4.43814171  0.60580102 -1.68527929
H  -4.36406719 -0.97647738 -0.93408904
H  -2.00677855  0.62235652 -2.05637092
H  -2.70727943 -0.80454276 -2.80897957
N   1.02577491  3.01783001 -0.19095758
C   2.01309379  3.73159601 -1.04842108
C   1.63778270  1.76172924  0.33318065
C   0.63583340  3.89437238  0.94915574
C  -0.18035302  2.68076323 -0.99815976
H   1.91251608  1.12977874 -0.50757779
H   2.88168751  3.98720334 -0.44397337
H   2.30488270  3.07459086 -1.86600353
H   1.54808627  4.63513407 -1.43927340
H  -0.65765848  3.60526114 -1.31885600
H   0.13157246  2.10099973 -1.86434308
H  -0.85980900  2.09931768 -0.37921405
H   1.52402367  4.11652705  1.53801605
H   0.20726412  4.81371376  0.55387492
H  -0.09695643  3.37084960  1.56007179
H   2.52227458  2.02460578  0.91033667
H   0.91032977  1.25600018  0.96443883
B   3.39524540 -1.64356950  0.21474401
F   2.61952079 -2.81830024  0.13652767
F   3.30507007 -0.93580193 -1.00257812
F   2.92557305 -0.83610826  1.26956635
F   4.74392833 -1.98780221  0.45398254

