51
Total Energy                               R     -1.122688158865205E+03
C  -0.41676033  1.78317857 -1.00053433
C  -1.33332879  1.32225022 -2.14052967
C  -0.75396504  3.26921788 -0.78159385
N  -0.72953507  0.95634995  0.21239881
O  -0.67264051 -0.41399468 -0.16655341
C   0.21373329  1.15548888  1.36340788
C  -0.00003341  2.51465452  2.05403598
C  -0.11150587  0.10160266  2.42840198
C   1.68326851  1.00498685  0.92539031
C   2.03205369  1.87713308 -0.28018576
C   1.05573238  1.62849765 -1.42955374
H  -2.38559429  1.39211858 -1.84259197
H  -1.13528027  0.29652905 -2.44592981
H  -1.18875582  1.96820518 -3.01226437
H  -1.70835902  3.38078310 -0.25909607
H  -0.84963840  3.76188665 -1.75358350
H   0.00090312  3.82304582 -0.22794650
H  -1.06540179  2.74292832  2.14996905
H   0.48144881  3.35190927  1.55343353
H   0.42075897  2.47319236  3.06294944
H  -1.16200753  0.17336722  2.73417664
H   0.50816244  0.26818542  3.31499004
H   0.06863502 -0.91232234  2.07462451
H   1.86744011 -0.04311526  0.67016831
H   2.34009176  1.23991378  1.77126967
H   3.05400732  1.66242234 -0.60847463
H   2.02328935  2.93597053  0.00190229
H   1.20582287  0.61125893 -1.80832337
H   1.26331720  2.30893024 -2.26388047
N  -4.34877319 -1.39346184 -0.03855460
C  -3.88762436 -0.16597794  0.67537077
C  -3.63601108 -2.57938917  0.51499013
C  -5.81663711 -1.56380057  0.14523956
C  -4.03998501 -1.26500503 -1.49141990
H  -2.56524087 -2.43136676  0.38505443
H  -4.11200939 -0.27989259  1.73539969
H  -2.81413922 -0.05141258  0.51721914
H  -4.42635665  0.69033526  0.27139761
H  -4.55374279 -0.38775254 -1.88133841
H  -2.96369822 -1.15508577 -1.60864000
H  -4.38745307 -2.16153592 -2.00247838
H  -6.02774198 -1.65403203  1.20957685
H  -6.32400470 -0.69229531 -0.26478482
H  -6.13455767 -2.46392049 -0.37873493
H  -3.87695623 -2.66862790  1.57290832
H  -3.96444664 -3.46788555 -0.02189212
B   4.37352679 -1.53095224 -0.20533021
F   4.85011275 -0.43140629  0.53846617
F   5.46162259 -2.35452734 -0.56922254
F   3.46679264 -2.27438704  0.57841873
F   3.72586473 -1.07104165 -1.36999876

