53
Total Energy                               R     -1.188314543382582E+03
C   1.63121508 -1.39019112  1.42951919
C   1.92081870 -1.56481093  2.92032447
C   0.97522090 -2.68144999  0.90689035
N   2.86784700 -0.95023508  0.73466403
O   3.73867854 -2.00221900  0.41007480
C   2.50608490 -0.09215210 -0.43180920
C   3.63093946  0.91870779 -0.66111878
C   2.25164444 -0.85759002 -1.74351406
C   1.23200743  0.54226149  0.08914771
C   0.73730897 -0.21173644  1.15150733
C  -0.44344608  0.11768893  1.78733518
C  -1.14010390  1.25462135  1.37253530
C  -2.44019320  1.63335647  1.97401301
O  -3.08526279  2.61306599  1.65509205
O  -2.86061083  0.77970767  2.91121885
C  -0.62746066  2.04980360  0.35214510
C   0.54937784  1.69463802 -0.30273902
C   0.99160399  2.60680293 -1.39817064
O   1.23813690  3.78284955 -1.23346936
O   1.03436796  2.01850623 -2.58989774
H   2.66956605 -2.34912284  3.06538835
H   1.01980300 -1.85905239  3.46706356
H   2.30249393 -0.63810558  3.35670867
H   1.64069144 -3.53604034  1.04974355
H   0.71531226 -2.62342315 -0.15002522
H   0.05475968 -2.87400184  1.46620000
H   4.57115273  0.38265839 -0.81782939
H   3.75125197  1.57772628  0.20260288
H   3.45573973  1.53331632 -1.54817057
H   3.15961279 -1.38490582 -2.04338059
H   1.98482321 -0.16104089 -2.53828956
H   1.44803919 -1.58871771 -1.65684613
H  -0.82479608 -0.50155336  2.59071082
H  -3.70877956  1.08408508  3.26219234
H  -1.16454982  2.94014107  0.04523298
H   1.33239408  2.65376689 -3.25764392
N  -2.64420341 -1.57368196 -1.52546536
C  -3.13953364 -1.34413983 -0.13784669
C  -2.20089627 -2.98964236 -1.66808039
C  -3.73931505 -1.29236566 -2.49557583
C  -1.49157163 -0.66681383 -1.79412839
H  -1.40095782 -3.17965830 -0.95487930
H  -3.98764381 -2.00223496  0.04302976
H  -2.33489446 -1.56689862  0.56017837
H  -3.44527528 -0.30349274 -0.04516316
H  -1.83237860  0.36290218 -1.70934067
H  -0.71818728 -0.87214204 -1.05890501
H  -1.11925139 -0.86046401 -2.79854377
H  -4.56998501 -1.96568367 -2.29104493
H  -4.05541603 -0.25769608 -2.37469449
H  -3.36380302 -1.45459272 -3.50439336
H  -3.04740288 -3.64375805 -1.46633992
H  -1.84250999 -3.14180523 -2.68470869

