41
Total Energy                               R     -1.398409903856266E+03
C   1.51843143 -1.86804755 -0.70353611
C   1.93105662 -3.26023544 -0.20820492
C   1.46671170 -1.79216475 -2.22771651
N   2.55355800 -0.90257832 -0.21103404
O   3.65522829 -0.89317167 -0.60989655
C   2.06816310  0.04185879  0.86738463
C   2.75694557 -0.45810947  2.15095916
C   2.50685620  1.44761684  0.46834882
C   0.58183472 -0.25151438  0.82937615
C   0.30248710 -1.31880027 -0.01677685
C  -0.98039258 -1.79734294 -0.20524172
C  -2.02567593 -1.17187594  0.46388900
C  -3.43497391 -1.61910118  0.30615525
O  -4.37529120 -1.11152078  0.88012428
O  -3.57001075 -2.64078647 -0.53841091
C  -1.76925276 -0.07970851  1.28557913
C  -0.47432113  0.39006201  1.48785664
C  -0.28280082  1.54646545  2.40889955
O   0.71966079  1.76225287  3.05341352
O  -1.35891963  2.32911299  2.47236974
H   2.87968202 -3.55258784 -0.66085926
H   1.15305739 -3.95616291 -0.52579255
H   2.01076322 -3.29011554  0.87897664
H   2.41752796 -2.11077969 -2.65665524
H   1.22248392 -0.78336722 -2.56181074
H   0.68486418 -2.47577115 -2.56194575
H   3.83926978 -0.37867094  2.03749918
H   2.48236416 -1.49108978  2.36977812
H   2.42837402  0.18062436  2.96740851
H   3.59427409  1.48492666  0.39263644
H   2.19346639  2.14205006  1.24438373
H   2.05772783  1.74018507 -0.47993435
H  -1.15932299 -2.63516111 -0.86794557
H  -4.50442354 -2.88149902 -0.60832896
H  -2.59630259  0.40675426  1.78533327
H  -1.20251625  3.03721732  3.11293087
B  -0.51225130  2.10773519 -2.09219601
F  -0.94971821  3.05396931 -3.04346208
F  -1.40837910  1.02176983 -2.06427664
F   0.77358003  1.64681375 -2.45258926
F  -0.45667104  2.71312584 -0.82079315

