55
Total Energy                               R     -1.291509198300320E+03
C   0.35736997 -1.82610034  1.43392095
C   0.99528246 -2.87112893  2.35226784
C  -0.41474098 -0.78459703  2.23671474
N  -0.54217517 -2.49387476  0.46039497
O  -1.56505832 -3.14325653  0.83099046
C  -0.04001706 -2.54964905 -0.93595002
C   0.36939587 -3.98218172 -1.28363218
C  -1.10431585 -2.03056565 -1.89788100
C   1.14477031 -1.62520864 -0.82539665
C   1.35694595 -1.21758888  0.48574309
C   2.37936894 -0.33857708  0.80040789
C   3.17282719  0.11463265 -0.23946066
N   4.18853389  1.12770115  0.05436758
C   2.99242559 -0.29120928 -1.55227397
C   1.96307467 -1.17660133 -1.85102851
H   0.22725356 -3.36360581  2.95351418
H   1.70102401 -2.38171499  3.02761946
H   1.53211659 -3.62711894  1.77462587
H  -1.21939420 -1.26075539  2.80146768
H  -0.84049783 -0.02433923  1.58215801
H   0.25877273 -0.29648120  2.94482690
H  -0.50259862 -4.64025996 -1.26154734
H   1.11564750 -4.35895306 -0.58044252
H   0.79432701 -4.00656642 -2.28980480
H  -2.00740455 -2.64203332 -1.83534192
H  -0.72731194 -2.08018724 -2.92193154
H  -1.35970303 -0.99365766 -1.67378301
H   2.54393139  0.00325853  1.81694180
H   3.74235463  2.05628046  0.09905386
H   4.91179479  1.16140974 -0.66455942
H   4.64720216  0.95876079  0.95034673
H   3.63691042  0.09248703 -2.33573755
H   1.80222201 -1.49702492 -2.87457587
N  -3.62788395  1.08412583 -0.17134955
C  -4.04269675  0.80751268 -1.57614164
C  -4.59206613  2.03349421  0.45349207
C  -3.61429033 -0.19091778  0.60165132
C  -2.26384864  1.68781474 -0.16572882
H  -4.58954115  2.96061765 -0.11702596
H  -5.03877059  0.36850547 -1.56721213
H  -4.05056871  1.74505822 -2.12924461
H  -3.33173213  0.11449092 -2.02167049
H  -1.56229906  0.97387497 -0.59081420
H  -2.28363117  2.59737045 -0.76319752
H  -1.99021287  1.91988735  0.86116987
H  -4.61689216 -0.61521933  0.58863879
H  -2.91111075 -0.87633247  0.13387682
H  -3.31097289  0.02391977  1.62436285
H  -5.58403197  1.58527883  0.43874327
H  -4.28053481  2.22183240  1.47944987
B   1.05027266  3.07862273  0.08001195
F   0.74220137  2.22896007 -0.99260948
F   0.36167481  4.29477286 -0.05789968
F   0.71370524  2.47091381  1.29926845
F   2.45758752  3.34465536  0.07101757

