55
Total Energy                               R     -1.291314658150456E+03
C  -0.30047988 -1.71307943 -1.44254008
C  -0.78198213 -2.87897635 -2.32266255
C   0.42794161 -0.66743033 -2.27255952
N   0.64507876 -2.30332635 -0.41882568
O   1.74375048 -2.61941662 -0.67213015
C   0.03729610 -2.45873835  0.96045365
C  -0.26895257 -3.95403562  1.14438332
C   1.02259577 -1.96287069  2.00963210
C  -1.19042580 -1.60772675  0.79055700
C  -1.36557607 -1.18831559 -0.52102086
C  -2.41315148 -0.35569997 -0.87024509
C  -3.26788368  0.04127734  0.14304139
N  -4.30525103  1.02412685 -0.17068783
C  -3.12594161 -0.38219356  1.45499354
C  -2.07158501 -1.22271661  1.78746064
H   0.06073009 -3.31291352 -2.86303901
H  -1.48945980 -2.45818851 -3.03887476
H  -1.28844027 -3.64917531 -1.74124325
H   1.26145050 -1.11766864 -2.81253247
H   0.78121343  0.15964921 -1.66065199
H  -0.28482696 -0.27829138 -3.00133765
H   0.65659363 -4.53165993  1.12328181
H  -0.95795156 -4.32584242  0.38682585
H  -0.73525138 -4.06068067  2.12500491
H   1.94707319 -2.54036371  1.97591605
H   0.55685919 -2.11290745  2.98502967
H   1.23885486 -0.90253215  1.88722618
H  -2.54566605 -0.00330570 -1.88720638
H  -3.88880682  1.96648829 -0.14891403
H  -5.07065820  0.99964323  0.50415286
H  -4.70276498  0.87985887 -1.09986397
H  -3.81998523 -0.04263370  2.21563416
H  -1.93642184 -1.55275817  2.81088911
N   3.65406993  1.05568407  0.16068501
C   4.07485322 -0.08750785  1.01947974
C   4.51308104  2.23917306  0.44794599
C   3.79793807  0.67247805 -1.27259348
C   2.23167467  1.39929318  0.44558197
H   4.40083693  2.50591355  1.49749055
H   5.12743539 -0.29437252  0.83269108
H   3.92365276  0.18249178  2.06325890
H   3.47308004 -0.95678821  0.76259151
H   1.61467572  0.53064414  0.22994454
H   2.14213324  1.67356691  1.49456520
H   1.94227045  2.23380386 -0.18947215
H   4.84618748  0.45466164 -1.47043312
H   3.19057160 -0.21019615 -1.46154806
H   3.46120564  1.50169125 -1.89241115
H   5.54848862  1.97986085  0.23411124
H   4.19294753  3.06455626 -0.18574963
B  -1.09406392  2.95798112 -0.00794557
F  -0.74136592  2.05769829  1.00892290
F  -0.43773883  4.18438795  0.19026431
F  -0.75860927  2.43198965 -1.26550235
F  -2.50666470  3.18257972  0.03651359

